
.MODEL 1N4370A D (
+   IS =  2.524e-16
+   RS =  0.5164
+   CJO =  1e-12
+   VJ =  0.75
+   TT =  5e-09
+   M =  0.3333
+   BV =  2.41
+   IBV =  0.04386
+   N =  1
+   EG =  1.11
+   XTI =  3
+   KF =  0
+   AF =  1
+   FC =  0.5
+   TNOM =  27
)

.MODEL 1N4371A D (
+   IS =  2.524e-16
+   RS =  0.5164
+   CJO =  1e-12
+   VJ =  0.75
+   TT =  5e-09
+   M =  0.3333
+   BV =  2.71
+   IBV =  0.04386
+   N =  1
+   EG =  1.11
+   XTI =  3
+   KF =  0
+   AF =  1
+   FC =  0.5
+   TNOM =  27
)

.MODEL 1N4372A D (
+   IS =  2.524e-16
+   RS =  0.5164
+   CJO =  1e-12
+   VJ =  0.75
+   TT =  5e-09
+   M =  0.3333
+   BV =  3.011
+   IBV =  0.0454
+   N =  1
+   EG =  1.11
+   XTI =  3
+   KF =  0
+   AF =  1
+   FC =  0.5
+   TNOM =  27
)

.MODEL 1N4678 D (
+   IS =  2.962e-13
+   RS =  0.7309
+   CJO =  1e-12
+   VJ =  0.75
+   TT =  5e-09
+   M =  0.3333
+   BV =  200.1
+   IBV =  0.01592
+   N =  1.281
+   EG =  1.11
+   XTI =  3
+   KF =  0
+   AF =  1
+   FC =  0.5
+   TNOM =  27
)

.MODEL 1N4681 D (
+   IS =  2.524e-16
+   RS =  0.5164
+   CJO =  1e-12
+   VJ =  0.75
+   TT =  5e-09
+   M =  0.3333
+   BV =  2.716
+   IBV =  10
+   N =  1
+   EG =  1.11
+   XTI =  3
+   KF =  0
+   AF =  1
+   FC =  0.5
+   TNOM =  27
)

.MODEL 1N4728A D (
+   IS =  5.038e-12
+   RS =  0.001
+   CJO =  1e-12
+   VJ =  0.75
+   TT =  5e-09
+   M =  0.3333
+   BV =  3.279
+   IBV =  0.03404
+   N =  1
+   EG =  1.11
+   XTI =  3
+   KF =  0
+   AF =  1
+   FC =  0.5
+   TNOM =  27
)

.MODEL 1N4729A D (
+   IS =  5.038e-12
+   RS =  0.001
+   CJO =  1e-12
+   VJ =  0.75
+   TT =  5e-09
+   M =  0.3333
+   BV =  3.584
+   IBV =  0.03749
+   N =  1
+   EG =  1.11
+   XTI =  3
+   KF =  0
+   AF =  1
+   FC =  0.5
+   TNOM =  27
)

.MODEL 1N4730A D (
+   IS =  5.038e-12
+   RS =  0.001
+   CJO =  1e-12
+   VJ =  0.75
+   TT =  5e-09
+   M =  0.3333
+   BV =  3.891
+   IBV =  0.04491
+   N =  1
+   EG =  1.11
+   XTI =  3
+   KF =  0
+   AF =  1
+   FC =  0.5
+   TNOM =  27
)

.MODEL 1N4731A D (
+   IS =  5.038e-12
+   RS =  0.001
+   CJO =  1e-12
+   VJ =  0.75
+   TT =  5e-09
+   M =  0.3333
+   BV =  4.296
+   IBV =  0.04955
+   N =  1
+   EG =  1.11
+   XTI =  3
+   KF =  0
+   AF =  1
+   FC =  0.5
+   TNOM =  27
)

.MODEL 1N4732A D (
+   IS =  5.038e-12
+   RS =  0.001
+   CJO =  1e-12
+   VJ =  0.75
+   TT =  5e-09
+   M =  0.3333
+   BV =  4.704
+   IBV =  0.06101
+   N =  1
+   EG =  1.11
+   XTI =  3
+   KF =  0
+   AF =  1
+   FC =  0.5
+   TNOM =  27
)

.MODEL 1N4733A D (
+   IS =  5.038e-12
+   RS =  0.001
+   CJO =  1e-12
+   VJ =  0.75
+   TT =  5e-09
+   M =  0.3333
+   BV =  5.111
+   IBV =  0.07542
+   N =  1
+   EG =  1.11
+   XTI =  3
+   KF =  0
+   AF =  1
+   FC =  0.5
+   TNOM =  27
)

.MODEL 1N4734A D (
+   IS =  5.038e-12
+   RS =  0.001
+   CJO =  1e-12
+   VJ =  0.75
+   TT =  5e-09
+   M =  0.3333
+   BV =  5.624
+   IBV =  0.115
+   N =  1
+   EG =  1.11
+   XTI =  3
+   KF =  0
+   AF =  1
+   FC =  0.5
+   TNOM =  27
)

.MODEL 1N4735A D (
+   IS =  5.038e-12
+   RS =  0.001
+   CJO =  1e-12
+   VJ =  0.75
+   TT =  5e-09
+   M =  0.3333
+   BV =  6.253
+   IBV =  0.3156
+   N =  1
+   EG =  1.11
+   XTI =  3
+   KF =  0
+   AF =  1
+   FC =  0.5
+   TNOM =  27
)

.MODEL 1N4736A D (
+   IS =  5.038e-12
+   RS =  0.001
+   CJO =  1e-12
+   VJ =  0.75
+   TT =  5e-09
+   M =  0.3333
+   BV =  6.844
+   IBV =  0.1998
+   N =  1
+   EG =  1.11
+   XTI =  3
+   KF =  0
+   AF =  1
+   FC =  0.5
+   TNOM =  27
)

.MODEL 1N4737A D (
+   IS =  5.038e-12
+   RS =  0.001
+   CJO =  1e-12
+   VJ =  0.75
+   TT =  5e-09
+   M =  0.3333
+   BV =  7.545
+   IBV =  0.1902
+   N =  1
+   EG =  1.11
+   XTI =  3
+   KF =  0
+   AF =  1
+   FC =  0.5
+   TNOM =  27
)

.MODEL 1N4738A D (
+   IS =  5.038e-12
+   RS =  0.001
+   CJO =  1e-12
+   VJ =  0.75
+   TT =  5e-09
+   M =  0.3333
+   BV =  8.246
+   IBV =  0.1854
+   N =  1
+   EG =  1.11
+   XTI =  3
+   KF =  0
+   AF =  1
+   FC =  0.5
+   TNOM =  27
)

.MODEL 1N4739A D (
+   IS =  5.038e-12
+   RS =  0.001
+   CJO =  1e-12
+   VJ =  0.75
+   TT =  5e-09
+   M =  0.3333
+   BV =  9.149
+   IBV =  0.1848
+   N =  1
+   EG =  1.11
+   XTI =  3
+   KF =  0
+   AF =  1
+   FC =  0.5
+   TNOM =  27
)

.MODEL 1N4740A D (
+   IS =  5.038e-12
+   RS =  0.001
+   CJO =  1e-12
+   VJ =  0.75
+   TT =  5e-09
+   M =  0.3333
+   BV =  10.05
+   IBV =  0.1478
+   N =  1
+   EG =  1.11
+   XTI =  3
+   KF =  0
+   AF =  1
+   FC =  0.5
+   TNOM =  27
)

.MODEL 1N4741A D (
+   IS =  5.038e-12
+   RS =  0.001
+   CJO =  1e-12
+   VJ =  0.75
+   TT =  5e-09
+   M =  0.3333
+   BV =  11.05
+   IBV =  0.1406
+   N =  1
+   EG =  1.11
+   XTI =  3
+   KF =  0
+   AF =  1
+   FC =  0.5
+   TNOM =  27
)

.MODEL 1N4742A D (
+   IS =  5.038e-12
+   RS =  0.001
+   CJO =  1e-12
+   VJ =  0.75
+   TT =  5e-09
+   M =  0.3333
+   BV =  12.05
+   IBV =  0.1369
+   N =  1
+   EG =  1.11
+   XTI =  3
+   KF =  0
+   AF =  1
+   FC =  0.5
+   TNOM =  27
)

.MODEL 1N4743A D (
+   IS =  5.038e-12
+   RS =  0.001
+   CJO =  1e-12
+   VJ =  0.75
+   TT =  5e-09
+   M =  0.3333
+   BV =  13.05
+   IBV =  0.1361
+   N =  1
+   EG =  1.11
+   XTI =  3
+   KF =  0
+   AF =  1
+   FC =  0.5
+   TNOM =  27
)

.MODEL 1N4744A D (
+   IS =  5.038e-12
+   RS =  0.001
+   CJO =  1e-12
+   VJ =  0.75
+   TT =  5e-09
+   M =  0.3333
+   BV =  15.05
+   IBV =  0.1087
+   N =  1
+   EG =  1.11
+   XTI =  3
+   KF =  0
+   AF =  1
+   FC =  0.5
+   TNOM =  27
)

.MODEL 1N4745A D (
+   IS =  5.038e-12
+   RS =  0.001
+   CJO =  1e-12
+   VJ =  0.75
+   TT =  5e-09
+   M =  0.3333
+   BV =  16.05
+   IBV =  0.1043
+   N =  1
+   EG =  1.11
+   XTI =  3
+   KF =  0
+   AF =  1
+   FC =  0.5
+   TNOM =  27
)

.MODEL 1N4746A D (
+   IS =  5.038e-12
+   RS =  0.001
+   CJO =  1e-12
+   VJ =  0.75
+   TT =  5e-09
+   M =  0.3333
+   BV =  18.05
+   IBV =  0.09238
+   N =  1
+   EG =  1.11
+   XTI =  3
+   KF =  0
+   AF =  1
+   FC =  0.5
+   TNOM =  27
)

.MODEL 1N4747A D (
+   IS =  5.038e-12
+   RS =  0.001
+   CJO =  1e-12
+   VJ =  0.75
+   TT =  5e-09
+   M =  0.3333
+   BV =  20.05
+   IBV =  0.09406
+   N =  1
+   EG =  1.11
+   XTI =  3
+   KF =  0
+   AF =  1
+   FC =  0.5
+   TNOM =  27
)

.MODEL 1N4748A D (
+   IS =  5.038e-12
+   RS =  0.001
+   CJO =  1e-12
+   VJ =  0.75
+   TT =  5e-09
+   M =  0.3333
+   BV =  22.06
+   IBV =  0.09779
+   N =  1
+   EG =  1.11
+   XTI =  3
+   KF =  0
+   AF =  1
+   FC =  0.5
+   TNOM =  27
)

.MODEL 1N4749A D (
+   IS =  5.038e-12
+   RS =  0.001
+   CJO =  1e-12
+   VJ =  0.75
+   TT =  5e-09
+   M =  0.3333
+   BV =  24.06
+   IBV =  0.09853
+   N =  1
+   EG =  1.11
+   XTI =  3
+   KF =  0
+   AF =  1
+   FC =  0.5
+   TNOM =  27
)

.MODEL 1N4750A D (
+   IS =  5.038e-12
+   RS =  0.001
+   CJO =  1e-12
+   VJ =  0.75
+   TT =  5e-09
+   M =  0.3333
+   BV =  27.05
+   IBV =  0.07779
+   N =  1
+   EG =  1.11
+   XTI =  3
+   KF =  0
+   AF =  1
+   FC =  0.5
+   TNOM =  27
)

.MODEL 1N4751A D (
+   IS =  5.038e-12
+   RS =  0.001
+   CJO =  1e-12
+   VJ =  0.75
+   TT =  5e-09
+   M =  0.3333
+   BV =  30.06
+   IBV =  0.07607
+   N =  1
+   EG =  1.11
+   XTI =  3
+   KF =  0
+   AF =  1
+   FC =  0.5
+   TNOM =  27
)

.MODEL 1N4752A D (
+   IS =  5.038e-12
+   RS =  0.001
+   CJO =  1e-12
+   VJ =  0.75
+   TT =  5e-09
+   M =  0.3333
+   BV =  33.06
+   IBV =  0.07664
+   N =  1
+   EG =  1.11
+   XTI =  3
+   KF =  0
+   AF =  1
+   FC =  0.5
+   TNOM =  27
)

.MODEL 1N4753A D (
+   IS =  5.038e-12
+   RS =  0.001
+   CJO =  1e-12
+   VJ =  0.75
+   TT =  5e-09
+   M =  0.3333
+   BV =  36.06
+   IBV =  0.0739
+   N =  1
+   EG =  1.11
+   XTI =  3
+   KF =  0
+   AF =  1
+   FC =  0.5
+   TNOM =  27
)

.MODEL 1N4754A D (
+   IS =  5.038e-12
+   RS =  0.001
+   CJO =  1e-12
+   VJ =  0.75
+   TT =  5e-09
+   M =  0.3333
+   BV =  39.06
+   IBV =  0.06632
+   N =  1
+   EG =  1.11
+   XTI =  3
+   KF =  0
+   AF =  1
+   FC =  0.5
+   TNOM =  27
)

.MODEL 1N4755A D (
+   IS =  5.038e-12
+   RS =  0.001
+   CJO =  1e-12
+   VJ =  0.75
+   TT =  5e-09
+   M =  0.3333
+   BV =  43.06
+   IBV =  0.06158
+   N =  1
+   EG =  1.11
+   XTI =  3
+   KF =  0
+   AF =  1
+   FC =  0.5
+   TNOM =  27
)

.MODEL 1N4756A D (
+   IS =  5.038e-12
+   RS =  0.001
+   CJO =  1e-12
+   VJ =  0.75
+   TT =  5e-09
+   M =  0.3333
+   BV =  47.06
+   IBV =  0.05878
+   N =  1
+   EG =  1.11
+   XTI =  3
+   KF =  0
+   AF =  1
+   FC =  0.5
+   TNOM =  27
)

.MODEL 1N4757A D (
+   IS =  5.038e-12
+   RS =  0.001
+   CJO =  1e-12
+   VJ =  0.75
+   TT =  5e-09
+   M =  0.3333
+   BV =  51.06
+   IBV =  0.05445
+   N =  1
+   EG =  1.11
+   XTI =  3
+   KF =  0
+   AF =  1
+   FC =  0.5
+   TNOM =  27
)

.MODEL 1N4758A D (
+   IS =  5.038e-12
+   RS =  0.001
+   CJO =  1e-12
+   VJ =  0.75
+   TT =  5e-09
+   M =  0.3333
+   BV =  56.06
+   IBV =  0.05225
+   N =  1
+   EG =  1.11
+   XTI =  3
+   KF =  0
+   AF =  1
+   FC =  0.5
+   TNOM =  27
)

.MODEL 1N4759A D (
+   IS =  5.038e-12
+   RS =  0.001
+   CJO =  1e-12
+   VJ =  0.75
+   TT =  5e-09
+   M =  0.3333
+   BV =  62.07
+   IBV =  0.05173
+   N =  1
+   EG =  1.11
+   XTI =  3
+   KF =  0
+   AF =  1
+   FC =  0.5
+   TNOM =  27
)

.MODEL 1N4760A D (
+   IS =  5.038e-12
+   RS =  0.001
+   CJO =  1e-12
+   VJ =  0.75
+   TT =  5e-09
+   M =  0.3333
+   BV =  68.07
+   IBV =  0.0466
+   N =  1
+   EG =  1.11
+   XTI =  3
+   KF =  0
+   AF =  1
+   FC =  0.5
+   TNOM =  27
)

.MODEL 1N4761A D (
+   IS =  5.038e-12
+   RS =  0.001
+   CJO =  1e-12
+   VJ =  0.75
+   TT =  5e-09
+   M =  0.3333
+   BV =  75.07
+   IBV =  0.04479
+   N =  1
+   EG =  1.11
+   XTI =  3
+   KF =  0
+   AF =  1
+   FC =  0.5
+   TNOM =  27
)

.MODEL 1N4762A D (
+   IS =  5.038e-12
+   RS =  0.001
+   CJO =  1e-12
+   VJ =  0.75
+   TT =  5e-09
+   M =  0.3333
+   BV =  82.07
+   IBV =  0.04311
+   N =  1
+   EG =  1.11
+   XTI =  3
+   KF =  0
+   AF =  1
+   FC =  0.5
+   TNOM =  27
)

.MODEL 1N4763A D (
+   IS =  5.038e-12
+   RS =  0.001
+   CJO =  1e-12
+   VJ =  0.75
+   TT =  5e-09
+   M =  0.3333
+   BV =  91.07
+   IBV =  0.03695
+   N =  1
+   EG =  1.11
+   XTI =  3
+   KF =  0
+   AF =  1
+   FC =  0.5
+   TNOM =  27
)

.MODEL 1N4764A D (
+   IS =  5.038e-12
+   RS =  0.001
+   CJO =  1e-12
+   VJ =  0.75
+   TT =  5e-09
+   M =  0.3333
+   BV =  100.1
+   IBV =  0.02956
+   N =  1
+   EG =  1.11
+   XTI =  3
+   KF =  0
+   AF =  1
+   FC =  0.5
+   TNOM =  27
)

.MODEL 1N476A D (
+   IS =  2.524e-16
+   RS =  0.5164
+   CJO =  1e-12
+   VJ =  0.75
+   TT =  5e-09
+   M =  0.3333
+   BV =  3.312
+   IBV =  0.04705
+   N =  1
+   EG =  1.11
+   XTI =  3
+   KF =  0
+   AF =  1
+   FC =  0.5
+   TNOM =  27
)

.MODEL 1N5221B D (
+   IS =  2.524e-16
+   RS =  0.5164
+   CJO =  1e-12
+   VJ =  0.75
+   TT =  5e-09
+   M =  0.3333
+   BV =  2.41
+   IBV =  0.04386
+   N =  1
+   EG =  1.11
+   XTI =  3
+   KF =  0
+   AF =  1
+   FC =  0.5
+   TNOM =  27
)

.MODEL 1N5222B D (
+   IS =  2.524e-16
+   RS =  0.5164
+   CJO =  1e-12
+   VJ =  0.75
+   TT =  5e-09
+   M =  0.3333
+   BV =  2.51
+   IBV =  0.04386
+   N =  1
+   EG =  1.11
+   XTI =  3
+   KF =  0
+   AF =  1
+   FC =  0.5
+   TNOM =  27
)

.MODEL 1N5223B D (
+   IS =  2.524e-16
+   RS =  0.5164
+   CJO =  1e-12
+   VJ =  0.75
+   TT =  5e-09
+   M =  0.3333
+   BV =  2.71
+   IBV =  0.04386
+   N =  1
+   EG =  1.11
+   XTI =  3
+   KF =  0
+   AF =  1
+   FC =  0.5
+   TNOM =  27
)

.MODEL 1N5224B D (
+   IS =  2.524e-16
+   RS =  0.5164
+   CJO =  1e-12
+   VJ =  0.75
+   TT =  5e-09
+   M =  0.3333
+   BV =  2.81
+   IBV =  0.04386
+   N =  1
+   EG =  1.11
+   XTI =  3
+   KF =  0
+   AF =  1
+   FC =  0.5
+   TNOM =  27
)

.MODEL 1N5225B D (
+   IS =  2.524e-16
+   RS =  0.5164
+   CJO =  1e-12
+   VJ =  0.75
+   TT =  5e-09
+   M =  0.3333
+   BV =  3.011
+   IBV =  0.0454
+   N =  1
+   EG =  1.11
+   XTI =  3
+   KF =  0
+   AF =  1
+   FC =  0.5
+   TNOM =  27
)

.MODEL 1N5226B D (
+   IS =  2.524e-16
+   RS =  0.5164
+   CJO =  1e-12
+   VJ =  0.75
+   TT =  5e-09
+   M =  0.3333
+   BV =  3.312
+   IBV =  0.04705
+   N =  1
+   EG =  1.11
+   XTI =  3
+   KF =  0
+   AF =  1
+   FC =  0.5
+   TNOM =  27
)

.MODEL 1N5227B D (
+   IS =  2.524e-16
+   RS =  0.5164
+   CJO =  1e-12
+   VJ =  0.75
+   TT =  5e-09
+   M =  0.3333
+   BV =  3.616
+   IBV =  0.05507
+   N =  1
+   EG =  1.11
+   XTI =  3
+   KF =  0
+   AF =  1
+   FC =  0.5
+   TNOM =  27
)

.MODEL 1N5228B D (
+   IS =  2.524e-16
+   RS =  0.5164
+   CJO =  1e-12
+   VJ =  0.75
+   TT =  5e-09
+   M =  0.3333
+   BV =  3.917
+   IBV =  0.05752
+   N =  1
+   EG =  1.11
+   XTI =  3
+   KF =  0
+   AF =  1
+   FC =  0.5
+   TNOM =  27
)

.MODEL 1N5229B D (
+   IS =  2.524e-16
+   RS =  0.5164
+   CJO =  1e-12
+   VJ =  0.75
+   TT =  5e-09
+   M =  0.3333
+   BV =  4.318
+   IBV =  0.0602
+   N =  1
+   EG =  1.11
+   XTI =  3
+   KF =  0
+   AF =  1
+   FC =  0.5
+   TNOM =  27
)

.MODEL 1N5230B D (
+   IS =  2.524e-16
+   RS =  0.5164
+   CJO =  1e-12
+   VJ =  0.75
+   TT =  5e-09
+   M =  0.3333
+   BV =  4.722
+   IBV =  0.06997
+   N =  1
+   EG =  1.11
+   XTI =  3
+   KF =  0
+   AF =  1
+   FC =  0.5
+   TNOM =  27
)

.MODEL 1N5231B D (
+   IS =  2.524e-16
+   RS =  0.5164
+   CJO =  1e-12
+   VJ =  0.75
+   TT =  5e-09
+   M =  0.3333
+   BV =  5.125
+   IBV =  0.07845
+   N =  1
+   EG =  1.11
+   XTI =  3
+   KF =  0
+   AF =  1
+   FC =  0.5
+   TNOM =  27
)

.MODEL 1N5232B D (
+   IS =  2.524e-16
+   RS =  0.5164
+   CJO =  1e-12
+   VJ =  0.75
+   TT =  5e-09
+   M =  0.3333
+   BV =  5.637
+   IBV =  0.1234
+   N =  1
+   EG =  1.11
+   XTI =  3
+   KF =  0
+   AF =  1
+   FC =  0.5
+   TNOM =  27
)

.MODEL 1N5233B D (
+   IS =  2.524e-16
+   RS =  0.5164
+   CJO =  1e-12
+   VJ =  0.75
+   TT =  5e-09
+   M =  0.3333
+   BV =  6.049
+   IBV =  0.1995
+   N =  1
+   EG =  1.11
+   XTI =  3
+   KF =  0
+   AF =  1
+   FC =  0.5
+   TNOM =  27
)

.MODEL 1N5234B D (
+   IS =  2.524e-16
+   RS =  0.5164
+   CJO =  1e-12
+   VJ =  0.75
+   TT =  5e-09
+   M =  0.3333
+   BV =  6.249
+   IBV =  0.1995
+   N =  1
+   EG =  1.11
+   XTI =  3
+   KF =  0
+   AF =  1
+   FC =  0.5
+   TNOM =  27
)

.MODEL 1N5235B D (
+   IS =  2.524e-16
+   RS =  0.5164
+   CJO =  1e-12
+   VJ =  0.75
+   TT =  5e-09
+   M =  0.3333
+   BV =  6.859
+   IBV =  0.2884
+   N =  1
+   EG =  1.11
+   XTI =  3
+   KF =  0
+   AF =  1
+   FC =  0.5
+   TNOM =  27
)

.MODEL 1N5236B D (
+   IS =  2.524e-16
+   RS =  0.5164
+   CJO =  1e-12
+   VJ =  0.75
+   TT =  5e-09
+   M =  0.3333
+   BV =  7.553
+   IBV =  0.2358
+   N =  1
+   EG =  1.11
+   XTI =  3
+   KF =  0
+   AF =  1
+   FC =  0.5
+   TNOM =  27
)

.MODEL 1N5237B D (
+   IS =  2.524e-16
+   RS =  0.5164
+   CJO =  1e-12
+   VJ =  0.75
+   TT =  5e-09
+   M =  0.3333
+   BV =  8.245
+   IBV =  0.1728
+   N =  1
+   EG =  1.11
+   XTI =  3
+   KF =  0
+   AF =  1
+   FC =  0.5
+   TNOM =  27
)

.MODEL 1N5238B D (
+   IS =  2.524e-16
+   RS =  0.5164
+   CJO =  1e-12
+   VJ =  0.75
+   TT =  5e-09
+   M =  0.3333
+   BV =  8.745
+   IBV =  0.1728
+   N =  1
+   EG =  1.11
+   XTI =  3
+   KF =  0
+   AF =  1
+   FC =  0.5
+   TNOM =  27
)

.MODEL 1N5239B D (
+   IS =  2.524e-16
+   RS =  0.5164
+   CJO =  1e-12
+   VJ =  0.75
+   TT =  5e-09
+   M =  0.3333
+   BV =  9.139
+   IBV =  0.1364
+   N =  1
+   EG =  1.11
+   XTI =  3
+   KF =  0
+   AF =  1
+   FC =  0.5
+   TNOM =  27
)

.MODEL 1N5240B D (
+   IS =  2.524e-16
+   RS =  0.5164
+   CJO =  1e-12
+   VJ =  0.75
+   TT =  5e-09
+   M =  0.3333
+   BV =  10.03
+   IBV =  0.07845
+   N =  1
+   EG =  1.11
+   XTI =  3
+   KF =  0
+   AF =  1
+   FC =  0.5
+   TNOM =  27
)

.MODEL 1N5241B D (
+   IS =  2.524e-16
+   RS =  0.5164
+   CJO =  1e-12
+   VJ =  0.75
+   TT =  5e-09
+   M =  0.3333
+   BV =  11.02
+   IBV =  0.0602
+   N =  1
+   EG =  1.11
+   XTI =  3
+   KF =  0
+   AF =  1
+   FC =  0.5
+   TNOM =  27
)

.MODEL 1N5242B D (
+   IS =  2.524e-16
+   RS =  0.5164
+   CJO =  1e-12
+   VJ =  0.75
+   TT =  5e-09
+   M =  0.3333
+   BV =  12.01
+   IBV =  0.04386
+   N =  1
+   EG =  1.11
+   XTI =  3
+   KF =  0
+   AF =  1
+   FC =  0.5
+   TNOM =  27
)

.MODEL 1N5243B D (
+   IS =  2.524e-16
+   RS =  0.5164
+   CJO =  1e-12
+   VJ =  0.75
+   TT =  5e-09
+   M =  0.3333
+   BV =  13.08
+   IBV =  0.2181
+   N =  1
+   EG =  1.11
+   XTI =  3
+   KF =  0
+   AF =  1
+   FC =  0.5
+   TNOM =  27
)

.MODEL 1N5244B D (
+   IS =  2.524e-16
+   RS =  0.5164
+   CJO =  1e-12
+   VJ =  0.75
+   TT =  5e-09
+   M =  0.3333
+   BV =  14.08
+   IBV =  0.1984
+   N =  1
+   EG =  1.11
+   XTI =  3
+   KF =  0
+   AF =  1
+   FC =  0.5
+   TNOM =  27
)

.MODEL 1N5245B D (
+   IS =  2.524e-16
+   RS =  0.5164
+   CJO =  1e-12
+   VJ =  0.75
+   TT =  5e-09
+   M =  0.3333
+   BV =  15.08
+   IBV =  0.1965
+   N =  1
+   EG =  1.11
+   XTI =  3
+   KF =  0
+   AF =  1
+   FC =  0.5
+   TNOM =  27
)

.MODEL 1N5246B D (
+   IS =  2.524e-16
+   RS =  0.5164
+   CJO =  1e-12
+   VJ =  0.75
+   TT =  5e-09
+   M =  0.3333
+   BV =  16.08
+   IBV =  0.2012
+   N =  1
+   EG =  1.11
+   XTI =  3
+   KF =  0
+   AF =  1
+   FC =  0.5
+   TNOM =  27
)

.MODEL 1N5247B D (
+   IS =  2.524e-16
+   RS =  0.5164
+   CJO =  1e-12
+   VJ =  0.75
+   TT =  5e-09
+   M =  0.3333
+   BV =  17.08
+   IBV =  0.1891
+   N =  1
+   EG =  1.11
+   XTI =  3
+   KF =  0
+   AF =  1
+   FC =  0.5
+   TNOM =  27
)

.MODEL 1N5248B D (
+   IS =  2.524e-16
+   RS =  0.5164
+   CJO =  1e-12
+   VJ =  0.75
+   TT =  5e-09
+   M =  0.3333
+   BV =  14.11
+   IBV =  0.0001804
+   N =  1
+   EG =  1.11
+   XTI =  3
+   KF =  0
+   AF =  1
+   FC =  0.5
+   TNOM =  27
)

.MODEL 1N5249B D (
+   IS =  2.524e-16
+   RS =  0.5164
+   CJO =  1e-12
+   VJ =  0.75
+   TT =  5e-09
+   M =  0.3333
+   BV =  19.08
+   IBV =  0.1743
+   N =  1
+   EG =  1.11
+   XTI =  3
+   KF =  0
+   AF =  1
+   FC =  0.5
+   TNOM =  27
)

.MODEL 1N5250B D (
+   IS =  2.524e-16
+   RS =  0.5164
+   CJO =  1e-12
+   VJ =  0.75
+   TT =  5e-09
+   M =  0.3333
+   BV =  20.08
+   IBV =  0.1704
+   N =  1
+   EG =  1.11
+   XTI =  3
+   KF =  0
+   AF =  1
+   FC =  0.5
+   TNOM =  27
)

.MODEL 1N5251B D (
+   IS =  2.524e-16
+   RS =  0.5164
+   CJO =  1e-12
+   VJ =  0.75
+   TT =  5e-09
+   M =  0.3333
+   BV =  22.08
+   IBV =  0.1621
+   N =  1
+   EG =  1.11
+   XTI =  3
+   KF =  0
+   AF =  1
+   FC =  0.5
+   TNOM =  27
)

.MODEL 1N5252B D (
+   IS =  2.524e-16
+   RS =  0.5164
+   CJO =  1e-12
+   VJ =  0.75
+   TT =  5e-09
+   M =  0.3333
+   BV =  24.08
+   IBV =  0.1531
+   N =  1
+   EG =  1.11
+   XTI =  3
+   KF =  0
+   AF =  1
+   FC =  0.5
+   TNOM =  27
)

.MODEL 1N5253B D (
+   IS =  2.524e-16
+   RS =  0.5164
+   CJO =  1e-12
+   VJ =  0.75
+   TT =  5e-09
+   M =  0.3333
+   BV =  25.09
+   IBV =  0.15
+   N =  1
+   EG =  1.11
+   XTI =  3
+   KF =  0
+   AF =  1
+   FC =  0.5
+   TNOM =  27
)

.MODEL 1N5254B D (
+   IS =  2.524e-16
+   RS =  0.5164
+   CJO =  1e-12
+   VJ =  0.75
+   TT =  5e-09
+   M =  0.3333
+   BV =  27.09
+   IBV =  0.1631
+   N =  1
+   EG =  1.11
+   XTI =  3
+   KF =  0
+   AF =  1
+   FC =  0.5
+   TNOM =  27
)

.MODEL 1N5255B D (
+   IS =  2.524e-16
+   RS =  0.5164
+   CJO =  1e-12
+   VJ =  0.75
+   TT =  5e-09
+   M =  0.3333
+   BV =  28.09
+   IBV =  0.1322
+   N =  1
+   EG =  1.11
+   XTI =  3
+   KF =  0
+   AF =  1
+   FC =  0.5
+   TNOM =  27
)

.MODEL 1N5256B D (
+   IS =  2.524e-16
+   RS =  0.5164
+   CJO =  1e-12
+   VJ =  0.75
+   TT =  5e-09
+   M =  0.3333
+   BV =  30.09
+   IBV =  0.127
+   N =  1
+   EG =  1.11
+   XTI =  3
+   KF =  0
+   AF =  1
+   FC =  0.5
+   TNOM =  27
)

.MODEL 1N5257B D (
+   IS =  2.524e-16
+   RS =  0.5164
+   CJO =  1e-12
+   VJ =  0.75
+   TT =  5e-09
+   M =  0.3333
+   BV =  33.09
+   IBV =  0.1184
+   N =  1
+   EG =  1.11
+   XTI =  3
+   KF =  0
+   AF =  1
+   FC =  0.5
+   TNOM =  27
)

.MODEL 1N5258B D (
+   IS =  2.524e-16
+   RS =  0.5164
+   CJO =  1e-12
+   VJ =  0.75
+   TT =  5e-09
+   M =  0.3333
+   BV =  36.09
+   IBV =  0.1095
+   N =  1
+   EG =  1.11
+   XTI =  3
+   KF =  0
+   AF =  1
+   FC =  0.5
+   TNOM =  27
)

.MODEL 1N5259B D (
+   IS =  2.524e-16
+   RS =  0.5164
+   CJO =  1e-12
+   VJ =  0.75
+   TT =  5e-09
+   M =  0.3333
+   BV =  39.09
+   IBV =  0.1017
+   N =  1
+   EG =  1.11
+   XTI =  3
+   KF =  0
+   AF =  1
+   FC =  0.5
+   TNOM =  27
)

.MODEL 1N5260B D (
+   IS =  2.524e-16
+   RS =  0.5164
+   CJO =  1e-12
+   VJ =  0.75
+   TT =  5e-09
+   M =  0.3333
+   BV =  43.09
+   IBV =  0.09322
+   N =  1
+   EG =  1.11
+   XTI =  3
+   KF =  0
+   AF =  1
+   FC =  0.5
+   TNOM =  27
)

.MODEL 1N5261B D (
+   IS =  2.524e-16
+   RS =  0.5164
+   CJO =  1e-12
+   VJ =  0.75
+   TT =  5e-09
+   M =  0.3333
+   BV =  51.09
+   IBV =  0.08311
+   N =  1
+   EG =  1.11
+   XTI =  3
+   KF =  0
+   AF =  1
+   FC =  0.5
+   TNOM =  27
)

.MODEL 1N5262B D (
+   IS =  2.524e-16
+   RS =  0.5164
+   CJO =  1e-12
+   VJ =  0.75
+   TT =  5e-09
+   M =  0.3333
+   BV =  51.09
+   IBV =  0.08311
+   N =  1
+   EG =  1.11
+   XTI =  3
+   KF =  0
+   AF =  1
+   FC =  0.5
+   TNOM =  27
)

.MODEL 1N5263B D (
+   IS =  2.524e-16
+   RS =  0.5164
+   CJO =  1e-12
+   VJ =  0.75
+   TT =  5e-09
+   M =  0.3333
+   BV =  56.09
+   IBV =  0.07865
+   N =  1
+   EG =  1.11
+   XTI =  3
+   KF =  0
+   AF =  1
+   FC =  0.5
+   TNOM =  27
)

.MODEL 1N5264B D (
+   IS =  2.524e-16
+   RS =  0.5164
+   CJO =  1e-12
+   VJ =  0.75
+   TT =  5e-09
+   M =  0.3333
+   BV =  60.09
+   IBV =  0.07267
+   N =  1
+   EG =  1.11
+   XTI =  3
+   KF =  0
+   AF =  1
+   FC =  0.5
+   TNOM =  27
)

.MODEL 1N5265B D (
+   IS =  2.524e-16
+   RS =  0.5164
+   CJO =  1e-12
+   VJ =  0.75
+   TT =  5e-09
+   M =  0.3333
+   BV =  62.09
+   IBV =  0.0701
+   N =  1
+   EG =  1.11
+   XTI =  3
+   KF =  0
+   AF =  1
+   FC =  0.5
+   TNOM =  27
)

.MODEL 1N5266B D (
+   IS =  2.524e-16
+   RS =  0.5164
+   CJO =  1e-12
+   VJ =  0.75
+   TT =  5e-09
+   M =  0.3333
+   BV =  68.09
+   IBV =  0.06261
+   N =  1
+   EG =  1.11
+   XTI =  3
+   KF =  0
+   AF =  1
+   FC =  0.5
+   TNOM =  27
)

.MODEL 1N5267B D (
+   IS =  2.524e-16
+   RS =  0.5164
+   CJO =  1e-12
+   VJ =  0.75
+   TT =  5e-09
+   M =  0.3333
+   BV =  75.09
+   IBV =  0.05646
+   N =  1
+   EG =  1.11
+   XTI =  3
+   KF =  0
+   AF =  1
+   FC =  0.5
+   TNOM =  27
)

.MODEL 1N5268B D (
+   IS =  2.524e-16
+   RS =  0.5164
+   CJO =  1e-12
+   VJ =  0.75
+   TT =  5e-09
+   M =  0.3333
+   BV =  82.09
+   IBV =  0.05233
+   N =  1
+   EG =  1.11
+   XTI =  3
+   KF =  0
+   AF =  1
+   FC =  0.5
+   TNOM =  27
)

.MODEL 1N5269B D (
+   IS =  2.524e-16
+   RS =  0.5164
+   CJO =  1e-12
+   VJ =  0.75
+   TT =  5e-09
+   M =  0.3333
+   BV =  87.09
+   IBV =  0.05
+   N =  1
+   EG =  1.11
+   XTI =  3
+   KF =  0
+   AF =  1
+   FC =  0.5
+   TNOM =  27
)

.MODEL 1N5270B D (
+   IS =  2.524e-16
+   RS =  0.5164
+   CJO =  1e-12
+   VJ =  0.75
+   TT =  5e-09
+   M =  0.3333
+   BV =  100.1
+   IBV =  0.03983
+   N =  1
+   EG =  1.11
+   XTI =  3
+   KF =  0
+   AF =  1
+   FC =  0.5
+   TNOM =  27
)

.MODEL 1N5271B D (
+   IS =  2.524e-16
+   RS =  0.5164
+   CJO =  1e-12
+   VJ =  0.75
+   TT =  5e-09
+   M =  0.3333
+   BV =  100.1
+   IBV =  0.03983
+   N =  1
+   EG =  1.11
+   XTI =  3
+   KF =  0
+   AF =  1
+   FC =  0.5
+   TNOM =  27
)

.MODEL 1N5272B D (
+   IS =  2.524e-16
+   RS =  0.5164
+   CJO =  1e-12
+   VJ =  0.75
+   TT =  5e-09
+   M =  0.3333
+   BV =  110.1
+   IBV =  0.03137
+   N =  1
+   EG =  1.11
+   XTI =  3
+   KF =  0
+   AF =  1
+   FC =  0.5
+   TNOM =  27
)

.MODEL 1N5273B D (
+   IS =  2.524e-16
+   RS =  0.5164
+   CJO =  1e-12
+   VJ =  0.75
+   TT =  5e-09
+   M =  0.3333
+   BV =  120.1
+   IBV =  0.02875
+   N =  1
+   EG =  1.11
+   XTI =  3
+   KF =  0
+   AF =  1
+   FC =  0.5
+   TNOM =  27
)

.MODEL 1N5274B D (
+   IS =  2.524e-16
+   RS =  0.5164
+   CJO =  1e-12
+   VJ =  0.75
+   TT =  5e-09
+   M =  0.3333
+   BV =  130.1
+   IBV =  0.02476
+   N =  1
+   EG =  1.11
+   XTI =  3
+   KF =  0
+   AF =  1
+   FC =  0.5
+   TNOM =  27
)

.MODEL 1N5275B D (
+   IS =  2.524e-16
+   RS =  0.5164
+   CJO =  1e-12
+   VJ =  0.75
+   TT =  5e-09
+   M =  0.3333
+   BV =  140.1
+   IBV =  0.02211
+   N =  1
+   EG =  1.11
+   XTI =  3
+   KF =  0
+   AF =  1
+   FC =  0.5
+   TNOM =  27
)

.MODEL 1N5276B D (
+   IS =  2.524e-16
+   RS =  0.5164
+   CJO =  1e-12
+   VJ =  0.75
+   TT =  5e-09
+   M =  0.3333
+   BV =  150.1
+   IBV =  0.02029
+   N =  1
+   EG =  1.11
+   XTI =  3
+   KF =  0
+   AF =  1
+   FC =  0.5
+   TNOM =  27
)

.MODEL 1N5277B D (
+   IS =  2.524e-16
+   RS =  0.5164
+   CJO =  1e-12
+   VJ =  0.75
+   TT =  5e-09
+   M =  0.3333
+   BV =  160.1
+   IBV =  0.01902
+   N =  1
+   EG =  1.11
+   XTI =  3
+   KF =  0
+   AF =  1
+   FC =  0.5
+   TNOM =  27
)

.MODEL 1N5278B D (
+   IS =  2.524e-16
+   RS =  0.5164
+   CJO =  1e-12
+   VJ =  0.75
+   TT =  5e-09
+   M =  0.3333
+   BV =  170.1
+   IBV =  0.0184
+   N =  1
+   EG =  1.11
+   XTI =  3
+   KF =  0
+   AF =  1
+   FC =  0.5
+   TNOM =  27
)

.MODEL 1N5279B D (
+   IS =  2.524e-16
+   RS =  0.5164
+   CJO =  1e-12
+   VJ =  0.75
+   TT =  5e-09
+   M =  0.3333
+   BV =  180.1
+   IBV =  0.01729
+   N =  1
+   EG =  1.11
+   XTI =  3
+   KF =  0
+   AF =  1
+   FC =  0.5
+   TNOM =  27
)

.MODEL 1N5280B D (
+   IS =  2.524e-16
+   RS =  0.5164
+   CJO =  1e-12
+   VJ =  0.75
+   TT =  5e-09
+   M =  0.3333
+   BV =  190.1
+   IBV =  0.01633
+   N =  1
+   EG =  1.11
+   XTI =  3
+   KF =  0
+   AF =  1
+   FC =  0.5
+   TNOM =  27
)

.MODEL 1N5281B D (
+   IS =  2.524e-16
+   RS =  0.5164
+   CJO =  1e-12
+   VJ =  0.75
+   TT =  5e-09
+   M =  0.3333
+   BV =  200.1
+   IBV =  0.01592
+   N =  1
+   EG =  1.11
+   XTI =  3
+   KF =  0
+   AF =  1
+   FC =  0.5
+   TNOM =  27
)

.MODEL 1N5913B D (
+   IS =  8.134e-19
+   RS =  1.464
+   CJO =  0.000999
+   VJ =  0.75
+   TT =  5e-09
+   M =  0.3333
+   BV =  3.096
+   IBV =  0.02667
+   N =  1
+   EG =  1.11
+   XTI =  3
+   KF =  0
+   AF =  1
+   FC =  0.5
+   TNOM =  27
)

.MODEL 1N5914B D (
+   IS =  8.134e-19
+   RS =  1.464
+   CJO =  0.000999
+   VJ =  0.75
+   TT =  5e-09
+   M =  0.3333
+   BV =  3.418
+   IBV =  0.03294
+   N =  1
+   EG =  1.11
+   XTI =  3
+   KF =  0
+   AF =  1
+   FC =  0.5
+   TNOM =  27
)

.MODEL 1N5915B D (
+   IS =  8.134e-19
+   RS =  1.464
+   CJO =  0.000999
+   VJ =  0.75
+   TT =  5e-09
+   M =  0.3333
+   BV =  3.739
+   IBV =  0.04459
+   N =  1
+   EG =  1.11
+   XTI =  3
+   KF =  0
+   AF =  1
+   FC =  0.5
+   TNOM =  27
)

.MODEL 1N5916B D (
+   IS =  8.134e-19
+   RS =  1.464
+   CJO =  0.000999
+   VJ =  0.75
+   TT =  5e-09
+   M =  0.3333
+   BV =  4.165
+   IBV =  0.06538
+   N =  1
+   EG =  1.11
+   XTI =  3
+   KF =  0
+   AF =  1
+   FC =  0.5
+   TNOM =  27
)

.MODEL 1N5917B D (
+   IS =  8.134e-19
+   RS =  1.464
+   CJO =  0.000999
+   VJ =  0.75
+   TT =  5e-09
+   M =  0.3333
+   BV =  0.1
+   IBV =  9.165e-05
+   N =  1
+   EG =  1.11
+   XTI =  3
+   KF =  0
+   AF =  1
+   FC =  0.5
+   TNOM =  27
)

.MODEL 1N5918B D (
+   IS =  8.134e-19
+   RS =  1.464
+   CJO =  0.000999
+   VJ =  0.75
+   TT =  5e-09
+   M =  0.3333
+   BV =  5.009
+   IBV =  0.1387
+   N =  1
+   EG =  1.11
+   XTI =  3
+   KF =  0
+   AF =  1
+   FC =  0.5
+   TNOM =  27
)

.MODEL 1N5919B D (
+   IS =  8.134e-19
+   RS =  1.464
+   CJO =  0.000999
+   VJ =  0.75
+   TT =  5e-09
+   M =  0.3333
+   BV =  5.564
+   IBV =  0.7208
+   N =  1
+   EG =  1.11
+   XTI =  3
+   KF =  0
+   AF =  1
+   FC =  0.5
+   TNOM =  27
)

.MODEL 1N5920B D (
+   IS =  8.134e-19
+   RS =  1.464
+   CJO =  0.000999
+   VJ =  0.75
+   TT =  5e-09
+   M =  0.3333
+   BV =  6.178
+   IBV =  0.797
+   N =  1
+   EG =  1.11
+   XTI =  3
+   KF =  0
+   AF =  1
+   FC =  0.5
+   TNOM =  27
)

.MODEL 1N5921B D (
+   IS =  8.134e-19
+   RS =  1.464
+   CJO =  0.000999
+   VJ =  0.75
+   TT =  5e-09
+   M =  0.3333
+   BV =  6.774
+   IBV =  0.4529
+   N =  1
+   EG =  1.11
+   XTI =  3
+   KF =  0
+   AF =  1
+   FC =  0.5
+   TNOM =  27
)

.MODEL 1N5922B D (
+   IS =  8.134e-19
+   RS =  1.464
+   CJO =  0.000999
+   VJ =  0.75
+   TT =  5e-09
+   M =  0.3333
+   BV =  7.476
+   IBV =  0.3367
+   N =  1
+   EG =  1.11
+   XTI =  3
+   KF =  0
+   AF =  1
+   FC =  0.5
+   TNOM =  27
)

.MODEL 1N5923B D (
+   IS =  8.134e-19
+   RS =  1.464
+   CJO =  0.000999
+   VJ =  0.75
+   TT =  5e-09
+   M =  0.3333
+   BV =  8.18
+   IBV =  0.2779
+   N =  1
+   EG =  1.11
+   XTI =  3
+   KF =  0
+   AF =  1
+   FC =  0.5
+   TNOM =  27
)

.MODEL 1N5924B D (
+   IS =  8.134e-19
+   RS =  1.464
+   CJO =  0.000999
+   VJ =  0.75
+   TT =  5e-09
+   M =  0.3333
+   BV =  9.086
+   IBV =  0.2475
+   N =  1
+   EG =  1.11
+   XTI =  3
+   KF =  0
+   AF =  1
+   FC =  0.5
+   TNOM =  27
)

.MODEL 1N5925B D (
+   IS =  8.134e-19
+   RS =  1.464
+   CJO =  0.000999
+   VJ =  0.75
+   TT =  5e-09
+   M =  0.3333
+   BV =  9.992
+   IBV =  0.2271
+   N =  1
+   EG =  1.11
+   XTI =  3
+   KF =  0
+   AF =  1
+   FC =  0.5
+   TNOM =  27
)

.MODEL 1N5926B D (
+   IS =  8.134e-19
+   RS =  1.464
+   CJO =  0.000999
+   VJ =  0.75
+   TT =  5e-09
+   M =  0.3333
+   BV =  10.99
+   IBV =  0.1879
+   N =  1
+   EG =  1.11
+   XTI =  3
+   KF =  0
+   AF =  1
+   FC =  0.5
+   TNOM =  27
)

.MODEL 1N5927B D (
+   IS =  8.134e-19
+   RS =  1.464
+   CJO =  0.000999
+   VJ =  0.75
+   TT =  5e-09
+   M =  0.3333
+   BV =  12
+   IBV =  0.1646
+   N =  1
+   EG =  1.11
+   XTI =  3
+   KF =  0
+   AF =  1
+   FC =  0.5
+   TNOM =  27
)

.MODEL 1N5928B D (
+   IS =  8.134e-19
+   RS =  1.464
+   CJO =  0.000999
+   VJ =  0.75