
.MODEL 2N3702 PNP (
+   IS =  6.506e-16
+   BF =  133.8
+   BR =  3.73
+   RB =  10
+   RE =  0
+   RC =  0.715
+   CJS =  0
+   CJE =  1.982e-11
+   CJC =  1.476e-11
+   VJE =  0.75
+   VJC =  0.75
+   TF =  7.613e-10
+   TR =  1.141e-07
+   MJE =  0.3357
+   MJC =  0.5383
+   VA =  115.7
+   ISE =  9.716e-14
+   IKF =  1.081
+   NE =  1.832
+   NF =  1
+   NR =  1
+   VAR =  1e+30
+   IKR =  0
+   ISC =  0
+   NC =  2
+   IRB =  1e+30
+   RBM =  0
+   XTF =  1.7
+   VTF =  5
+   ITF =  0.65
+   PTF =  0
+   XCJC =  1
+   VJS =  0.75
+   MJS =  0
+   XTB =  1.5
+   EG =  1.11
+   XTI =  3
+   KF =  0
+   AF =  1
+   FC =  0.5
+   TNOM =  27
)

.MODEL 2N3703 PNP (
+   IS =  6.506e-16
+   BF =  66.92
+   BR =  4.197
+   RB =  10
+   RE =  0
+   RC =  0.715
+   CJS =  0
+   CJE =  1.982e-11
+   CJC =  1.476e-11
+   VJE =  0.75
+   VJC =  0.75
+   TF =  7.613e-10
+   TR =  1.206e-07
+   MJE =  0.3357
+   MJC =  0.5383
+   VA =  115.7
+   ISE =  1.897e-13
+   IKF =  1.079
+   NE =  1.829
+   NF =  1
+   NR =  1
+   VAR =  1e+30
+   IKR =  0
+   ISC =  0
+   NC =  2
+   IRB =  1e+30
+   RBM =  0
+   XTF =  1.7
+   VTF =  5
+   ITF =  0.65
+   PTF =  0
+   XCJC =  1
+   VJS =  0.75
+   MJS =  0
+   XTB =  1.5
+   EG =  1.11
+   XTI =  3
+   KF =  0
+   AF =  1
+   FC =  0.5
+   TNOM =  27
)

.MODEL 2N3905 PNP (
+   IS =  1.41e-15
+   BF =  90.35
+   BR =  5.502
+   RB =  10
+   RE =  0
+   RC =  2.5
+   CJS =  0
+   CJE =  8.063e-12
+   CJC =  9.728e-12
+   VJE =  0.75
+   VJC =  0.75
+   TF =  1.793e-10
+   TR =  3.505e-08
+   MJE =  0.3677
+   MJC =  0.5776
+   VA =  18.7
+   ISE =  0
+   IKF =  0.08
+   NE =  1.5
+   NF =  1
+   NR =  1
+   VAR =  1e+30
+   IKR =  0
+   ISC =  0
+   NC =  2
+   IRB =  1e+30
+   RBM =  0
+   XTF =  6
+   VTF =  4
+   ITF =  0.4
+   PTF =  0
+   XCJC =  1
+   VJS =  0.75
+   MJS =  0
+   XTB =  1.5
+   EG =  1.11
+   XTI =  3
+   KF =  0
+   AF =  1
+   FC =  0.5
+   TNOM =  27
)

.MODEL 2N3906 PNP (
+   IS =  1.41e-15
+   BF =  180.7
+   BR =  4.977
+   RB =  10
+   RE =  0
+   RC =  2.5
+   CJS =  0
+   CJE =  8.063e-12
+   CJC =  9.728e-12
+   VJE =  0.75
+   VJC =  0.75
+   TF =  1.793e-10
+   TR =  3.342e-08
+   MJE =  0.3677
+   MJC =  0.5776
+   VA =  18.7
+   ISE =  0
+   IKF =  0.08
+   NE =  1.5
+   NF =  1
+   NR =  1
+   VAR =  1e+30
+   IKR =  0
+   ISC =  0
+   NC =  2
+   IRB =  1e+30
+   RBM =  0
+   XTF =  6
+   VTF =  4
+   ITF =  0.4
+   PTF =  0
+   XCJC =  1
+   VJS =  0.75
+   MJS =  0
+   XTB =  1.5
+   EG =  1.11
+   XTI =  3
+   KF =  0
+   AF =  1
+   FC =  0.5
+   TNOM =  27
)

.MODEL 2N4058 PNP (
+   IS =  6.734e-15
+   BF =  185.8
+   BR =  2.736
+   RB =  10
+   RE =  0
+   RC =  1.67
+   CJS =  0
+   CJE =  7.5e-12
+   CJC =  6.2e-12
+   VJE =  0.75
+   VJC =  0.75
+   TF =  5.689e-10
+   TR =  1.038e-08
+   MJE =  0.2861
+   MJC =  0.301
+   VA =  45.7
+   ISE =  6.734e-15
+   IKF =  0.1845
+   NE =  1.692
+   NF =  1
+   NR =  1
+   VAR =  1e+30
+   IKR =  0
+   ISC =  0
+   NC =  2
+   IRB =  1e+30
+   RBM =  0
+   XTF =  8
+   VTF =  5
+   ITF =  0.17
+   PTF =  0
+   XCJC =  1
+   VJS =  0.75
+   MJS =  0
+   XTB =  1.5
+   EG =  1.11
+   XTI =  3
+   KF =  0
+   AF =  1
+   FC =  0.5
+   TNOM =  27
)

.MODEL 2N4061 PNP (
+   IS =  6.734e-15
+   BF =  161.4
+   BR =  2.767
+   RB =  10
+   RE =  0
+   RC =  1.67
+   CJS =  0
+   CJE =  7.5e-12
+   CJC =  6.2e-12
+   VJE =  0.75
+   VJC =  0.75
+   TF =  4.674e-10
+   TR =  1.054e-08
+   MJE =  0.2861
+   MJC =  0.301
+   VA =  45.7
+   ISE =  6.734e-15
+   IKF =  0.1806
+   NE =  1.672
+   NF =  1
+   NR =  1
+   VAR =  1e+30
+   IKR =  0
+   ISC =  0
+   NC =  2
+   IRB =  1e+30
+   RBM =  0
+   XTF =  8
+   VTF =  5
+   ITF =  0.17
+   PTF =  0
+   XCJC =  1
+   VJS =  0.75
+   MJS =  0
+   XTB =  1.5
+   EG =  1.11
+   XTI =  3
+   KF =  0
+   AF =  1
+   FC =  0.5
+   TNOM =  27
)

.MODEL 2N4062 PNP (
+   IS =  6.734e-15
+   BF =  319.9
+   BR =  2.654
+   RB =  10
+   RE =  0
+   RC =  1.67
+   CJS =  0
+   CJE =  7.5e-12
+   CJC =  6.2e-12
+   VJE =  0.75
+   VJC =  0.75
+   TF =  4.679e-10
+   TR =  9.956e-09
+   MJE =  0.2861
+   MJC =  0.301
+   VA =  45.7
+   ISE =  6.734e-15
+   IKF =  0.2013
+   NE =  1.776
+   NF =  1
+   NR =  1
+   VAR =  1e+30
+   IKR =  0
+   ISC =  0
+   NC =  2
+   IRB =  1e+30
+   RBM =  0
+   XTF =  8
+   VTF =  5
+   ITF =  0.17
+   PTF =  0
+   XCJC =  1
+   VJS =  0.75
+   MJS =  0
+   XTB =  1.5
+   EG =  1.11
+   XTI =  3
+   KF =  0
+   AF =  1
+   FC =  0.5
+   TNOM =  27
)

.MODEL 2N4125 PNP (
+   IS =  1.41e-15
+   BF =  85.04
+   BR =  5.576
+   RB =  10
+   RE =  0
+   RC =  2.5
+   CJS =  0
+   CJE =  8.063e-12
+   CJC =  9.728e-12
+   VJE =  0.75
+   VJC =  0.75
+   TF =  1.793e-10
+   TR =  3.525e-08
+   MJE =  0.3677
+   MJC =  0.5776
+   VA =  18.7
+   ISE =  0
+   IKF =  0.08
+   NE =  1.5
+   NF =  1
+   NR =  1
+   VAR =  1e+30
+   IKR =  0
+   ISC =  0
+   NC =  2
+   IRB =  1e+30
+   RBM =  0
+   XTF =  6
+   VTF =  4
+   ITF =  0.4
+   PTF =  0
+   XCJC =  1
+   VJS =  0.75
+   MJS =  0
+   XTB =  1.5
+   EG =  1.11
+   XTI =  3
+   KF =  0
+   AF =  1
+   FC =  0.5
+   TNOM =  27
)

.MODEL 2N4126 PNP (
+   IS =  1.41e-15
+   BF =  203.7
+   BR =  4.924
+   RB =  10
+   RE =  0
+   RC =  2.5
+   CJS =  0
+   CJE =  8.063e-12
+   CJC =  9.728e-12
+   VJE =  0.75
+   VJC =  0.75
+   TF =  1.793e-10
+   TR =  3.323e-08
+   MJE =  0.3677
+   MJC =  0.5776
+   VA =  18.7
+   ISE =  0
+   IKF =  0.08
+   NE =  1.5
+   NF =  1
+   NR =  1
+   VAR =  1e+30
+   IKR =  0
+   ISC =  0
+   NC =  2
+   IRB =  1e+30
+   RBM =  0
+   XTF =  6
+   VTF =  4
+   ITF =  0.4
+   PTF =  0
+   XCJC =  1
+   VJS =  0.75
+   MJS =  0
+   XTB =  1.5
+   EG =  1.11
+   XTI =  3
+   KF =  0
+   AF =  1
+   FC =  0.5
+   TNOM =  27
)

.MODEL 2N4289 PNP (
+   IS =  6.734e-15
+   BF =  278.4
+   BR =  2.671
+   RB =  10
+   RE =  0
+   RC =  1.67
+   CJS =  0
+   CJE =  7.5e-12
+   CJC =  6.2e-12
+   VJE =  0.75
+   VJC =  0.75
+   TF =  4.678e-10
+   TR =  1.004e-08
+   MJE =  0.2861
+   MJC =  0.301
+   VA =  45.7
+   ISE =  6.734e-15
+   IKF =  0.1985
+   NE =  1.755
+   NF =  1
+   NR =  1
+   VAR =  1e+30
+   IKR =  0
+   ISC =  0
+   NC =  2
+   IRB =  1e+30
+   RBM =  0
+   XTF =  8
+   VTF =  5
+   ITF =  0.17
+   PTF =  0
+   XCJC =  1
+   VJS =  0.75
+   MJS =  0
+   XTB =  1.5
+   EG =  1.11
+   XTI =  3
+   KF =  0
+   AF =  1
+   FC =  0.5
+   TNOM =  27
)

.MODEL 2N4291 PNP (
+   IS =  6.506e-16
+   BF =  207.6
+   BR =  3.588
+   RB =  10
+   RE =  0
+   RC =  0.715
+   CJS =  0
+   CJE =  1.982e-11
+   CJC =  1.476e-11
+   VJE =  0.75
+   VJC =  0.75
+   TF =  7.613e-10
+   TR =  1.117e-07
+   MJE =  0.3357
+   MJC =  0.5383
+   VA =  115.7
+   ISE =  6.115e-14
+   IKF =  1.079
+   NE =  1.829
+   NF =  1
+   NR =  1
+   VAR =  1e+30
+   IKR =  0
+   ISC =  0
+   NC =  2
+   IRB =  1e+30
+   RBM =  0
+   XTF =  1.7
+   VTF =  5
+   ITF =  0.65
+   PTF =  0
+   XCJC =  1
+   VJS =  0.75
+   MJS =  0
+   XTB =  1.5
+   EG =  1.11
+   XTI =  3
+   KF =  0
+   AF =  1
+   FC =  0.5
+   TNOM =  27
)

.MODEL 2N4402 PNP (
+   IS =  6.506e-16
+   BF =  108
+   BR =  3.83
+   RB =  10
+   RE =  0
+   RC =  0.715
+   CJS =  0
+   CJE =  1.982e-11
+   CJC =  1.476e-11
+   VJE =  0.75
+   VJC =  0.75
+   TF =  7.613e-10
+   TR =  1.157e-07
+   MJE =  0.3357
+   MJC =  0.5383
+   VA =  115.7
+   ISE =  1.469e-13
+   IKF =  1.115
+   NE =  1.86
+   NF =  1
+   NR =  1
+   VAR =  1e+30
+   IKR =  0
+   ISC =  0
+   NC =  2
+   IRB =  1e+30
+   RBM =  0
+   XTF =  1.7
+   VTF =  5
+   ITF =  0.65
+   PTF =  0
+   XCJC =  1
+   VJS =  0.75
+   MJS =  0
+   XTB =  1.5
+   EG =  1.11
+   XTI =  3
+   KF =  0
+   AF =  1
+   FC =  0.5
+   TNOM =  27
)

.MODEL 2N4403 PNP (
+   IS =  6.506e-16
+   BF =  216.2
+   BR =  3.578
+   RB =  10
+   RE =  0
+   RC =  0.715
+   CJS =  0
+   CJE =  1.982e-11
+   CJC =  1.476e-11
+   VJE =  0.75
+   VJC =  0.75
+   TF =  6.037e-10
+   TR =  1.116e-07
+   MJE =  0.3357
+   MJC =  0.5383
+   VA =  115.7
+   ISE =  5.872e-14
+   IKF =  1.079
+   NE =  1.829
+   NF =  1
+   NR =  1
+   VAR =  1e+30
+   IKR =  0
+   ISC =  0
+   NC =  2
+   IRB =  1e+30
+   RBM =  0
+   XTF =  1.7
+   VTF =  5
+   ITF =  0.65
+   PTF =  0
+   XCJC =  1
+   VJS =  0.75
+   MJS =  0
+   XTB =  1.5
+   EG =  1.11
+   XTI =  3
+   KF =  0
+   AF =  1
+   FC =  0.5
+   TNOM =  27
)

.MODEL 2N5086 PNP (
+   IS =  6.734e-15
+   BF =  254.1
+   BR =  2.683
+   RB =  10
+   RE =  0
+   RC =  1.67
+   CJS =  0
+   CJE =  7.5e-12
+   CJC =  6.2e-12
+   VJE =  0.75
+   VJC =  0.75
+   TF =  4.678e-10
+   TR =  1.01e-08
+   MJE =  0.2861
+   MJC =  0.301
+   VA =  45.7
+   ISE =  6.734e-15
+   IKF =  0.1962
+   NE =  1.741
+   NF =  1
+   NR =  1
+   VAR =  1e+30
+   IKR =  0
+   ISC =  0
+   NC =  2
+   IRB =  1e+30
+   RBM =  0
+   XTF =  8
+   VTF =  5
+   ITF =  0.17
+   PTF =  0
+   XCJC =  1
+   VJS =  0.75
+   MJS =  0
+   XTB =  1.5
+   EG =  1.11
+   XTI =  3
+   KF =  0
+   AF =  1
+   FC =  0.5
+   TNOM =  27
)

.MODEL 2N5087 PNP (
+   IS =  6.734e-15
+   BF =  254.1
+   BR =  2.683
+   RB =  10
+   RE =  0
+   RC =  1.67
+   CJS =  0
+   CJE =  7.5e-12
+   CJC =  6.2e-12
+   VJE =  0.75
+   VJC =  0.75
+   TF =  4.678e-10
+   TR =  1.01e-08
+   MJE =  0.2861
+   MJC =  0.301
+   VA =  45.7
+   ISE =  6.734e-15
+   IKF =  0.1962
+   NE =  1.741
+   NF =  1
+   NR =  1
+   VAR =  1e+30
+   IKR =  0
+   ISC =  0
+   NC =  2
+   IRB =  1e+30
+   RBM =  0
+   XTF =  8
+   VTF =  5
+   ITF =  0.17
+   PTF =  0
+   XCJC =  1
+   VJS =  0.75
+   MJS =  0
+   XTB =  1.5
+   EG =  1.11
+   XTI =  3
+   KF =  0
+   AF =  1
+   FC =  0.5
+   TNOM =  27
)

.MODEL 2N5226 PNP (
+   IS =  6.506e-16
+   BF =  138.8
+   BR =  3.713
+   RB =  10
+   RE =  0
+   RC =  0.715
+   CJS =  0
+   CJE =  1.982e-11
+   CJC =  1.476e-11
+   VJE =  0.75
+   VJC =  0.75
+   TF =  7.613e-10
+   TR =  1.139e-07
+   MJE =  0.3357
+   MJC =  0.5383
+   VA =  115.7
+   ISE =  1.112e-13
+   IKF =  1.109
+   NE =  1.856
+   NF =  1
+   NR =  1
+   VAR =  1e+30
+   IKR =  0
+   ISC =  0
+   NC =  2
+   IRB =  1e+30
+   RBM =  0
+   XTF =  1.7
+   VTF =  5
+   ITF =  0.65
+   PTF =  0
+   XCJC =  1
+   VJS =  0.75
+   MJS =  0
+   XTB =  1.5
+   EG =  1.11
+   XTI =  3
+   KF =  0
+   AF =  1
+   FC =  0.5
+   TNOM =  27
)

.MODEL 2N5227 PNP (
+   IS =  6.734e-15
+   BF =  198
+   BR =  2.724
+   RB =  10
+   RE =  0
+   RC =  1.67
+   CJS =  0
+   CJE =  7.5e-12
+   CJC =  6.2e-12
+   VJE =  0.75
+   VJC =  0.75
+   TF =  4.675e-10
+   TR =  1.032e-08
+   MJE =  0.2861
+   MJC =  0.301
+   VA =  45.7
+   ISE =  6.734e-15
+   IKF =  0.1863
+   NE =  1.702
+   NF =  1
+   NR =  1
+   VAR =  1e+30
+   IKR =  0
+   ISC =  0
+   NC =  2
+   IRB =  1e+30
+   RBM =  0
+   XTF =  8
+   VTF =  5
+   ITF =  0.17
+   PTF =  0
+   XCJC =  1
+   VJS =  0.75
+   MJS =  0
+   XTB =  1.5
+   EG =  1.11
+   XTI =  3
+   KF =  0
+   AF =  1
+   FC =  0.5
+   TNOM =  27
)

.MODEL 2N5354 PNP (
+   IS =  6.506e-16
+   BF =  66.92
+   BR =  4.197
+   RB =  10
+   RE =  0
+   RC =  0.715
+   CJS =  0
+   CJE =  1.982e-11
+   CJC =  1.476e-11
+   VJE =  0.75
+   VJC =  0.75
+   TF =  7.613e-10
+   TR =  1.206e-07
+   MJE =  0.3357
+   MJC =  0.5383
+   VA =  115.7
+   ISE =  1.897e-13
+   IKF =  1.079
+   NE =  1.829
+   NF =  1
+   NR =  1
+   VAR =  1e+30
+   IKR =  0
+   ISC =  0
+   NC =  2
+   IRB =  1e+30
+   RBM =  0
+   XTF =  1.7
+   VTF =  5
+   ITF =  0.65
+   PTF =  0
+   XCJC =  1
+   VJS =  0.75
+   MJS =  0
+   XTB =  1.5
+   EG =  1.11
+   XTI =  3
+   KF =  0
+   AF =  1
+   FC =  0.5
+   TNOM =  27
)

.MODEL 2N5355 PNP (
+   IS =  6.506e-16
+   BF =  166.3
+   BR =  3.649
+   RB =  10
+   RE =  0
+   RC =  0.715
+   CJS =  0
+   CJE =  1.982e-11
+   CJC =  1.476e-11
+   VJE =  0.75
+   VJC =  0.75
+   TF =  7.613e-10
+   TR =  1.128e-07
+   MJE =  0.3357
+   MJC =  0.5383
+   VA =  115.7
+   ISE =  9.078e-14
+   IKF =  1.105
+   NE =  1.853
+   NF =  1
+   NR =  1
+   VAR =  1e+30
+   IKR =  0
+   ISC =  0
+   NC =  2
+   IRB =  1e+30
+   RBM =  0
+   XTF =  1.7
+   VTF =  5
+   ITF =  0.65
+   PTF =  0
+   XCJC =  1
+   VJS =  0.75
+   MJS =  0
+   XTB =  1.5
+   EG =  1.11
+   XTI =  3
+   KF =  0
+   AF =  1
+   FC =  0.5
+   TNOM =  27
)

.MODEL 2N5365 PNP (
+   IS =  6.506e-16
+   BF =  66.92
+   BR =  4.197
+   RB =  10
+   RE =  0
+   RC =  0.715
+   CJS =  0
+   CJE =  1.982e-11
+   CJC =  1.476e-11
+   VJE =  0.75
+   VJC =  0.75
+   TF =  7.613e-10
+   TR =  1.206e-07
+   MJE =  0.3357
+   MJC =  0.5383
+   VA =  115.7
+   ISE =  1.897e-13
+   IKF =  1.079
+   NE =  1.829
+   NF =  1
+   NR =  1
+   VAR =  1e+30
+   IKR =  0
+   ISC =  0
+   NC =  2
+   IRB =  1e+30
+   RBM =  0
+   XTF =  1.7
+   VTF =  5
+   ITF =  0.65
+   PTF =  0
+   XCJC =  1
+   VJS =  0.75
+   MJS =  0
+   XTB =  1.5
+   EG =  1.11
+   XTI =  3
+   KF =  0
+   AF =  1
+   FC =  0.5
+   TNOM =  27
)

.MODEL 2N5366 PNP (
+   IS =  6.506e-16
+   BF =  166.3
+   BR =  3.649
+   RB =  10
+   RE =  0
+   RC =  0.715
+   CJS =  0
+   CJE =  1.982e-11
+   CJC =  1.476e-11
+   VJE =  0.75
+   VJC =  0.75
+   TF =  7.613e-10
+   TR =  1.128e-07
+   MJE =  0.3357
+   MJC =  0.5383
+   VA =  115.7
+   ISE =  9.078e-14
+   IKF =  1.105
+   NE =  1.853
+   NF =  1
+   NR =  1
+   VAR =  1e+30
+   IKR =  0
+   ISC =  0
+   NC =  2
+   IRB =  1e+30
+   RBM =  0
+   XTF =  1.7
+   VTF =  5
+   ITF =  0.65
+   PTF =  0
+   XCJC =  1
+   VJS =  0.75
+   MJS =  0
+   XTB =  1.5
+   EG =  1.11
+   XTI =  3
+   KF =  0
+   AF =  1
+   FC =  0.5
+   TNOM =  27
)

.MODEL 2N5400 PNP (
+   IS =  2.148e-14
+   BF =  93.44
+   BR =  3.874
+   RB =  10
+   RE =  0
+   RC =  1.6
+   CJS =  0
+   CJE =  7.339e-11
+   CJC =  1.763e-11
+   VJE =  0.75
+   VJC =  0.75
+   TF =  6.415e-10
+   TR =  1.512e-09
+   MJE =  0.3777
+   MJC =  0.5312
+   VA =  100
+   ISE =  2.148e-14
+   IKF =  0.1798
+   NE =  1.344
+   NF =  1
+   NR =  1
+   VAR =  1e+30
+   IKR =  0
+   ISC =  0
+   NC =  2
+   IRB =  1e+30
+   RBM =  0
+   XTF =  0
+   VTF =  0
+   ITF =  0
+   PTF =  0
+   XCJC =  1
+   VJS =  0.75
+   MJS =  0
+   XTB =  1.5
+   EG =  1.11
+   XTI =  3
+   KF =  0
+   AF =  1
+   FC =  0.5
+   TNOM =  27
)

.MODEL 2N5401 PNP (
+   IS =  2.148e-14
+   BF =  132.1
+   BR =  3.661
+   RB =  10
+   RE =  0
+   RC =  1.6
+   CJS =  0
+   CJE =  7.339e-11
+   CJC =  1.763e-11
+   VJE =  0.75
+   VJC =  0.75
+   TF =  6.419e-10
+   TR =  1.476e-09
+   MJE =  0.3777
+   MJC =  0.5312
+   VA =  100
+   ISE =  2.148e-14
+   IKF =  0.1848
+   NE =  1.375
+   NF =  1
+   NR =  1
+   VAR =  1e+30
+   IKR =  0
+   ISC =  0
+   NC =  2
+   IRB =  1e+30
+   RBM =  0
+   XTF =  0
+   VTF =  0
+   ITF =  0
+   PTF =  0
+   XCJC =  1
+   VJS =  0.75
+   MJS =  0
+   XTB =  1.5
+   EG =  1.11
+   XTI =  3
+   KF =  0
+   AF =  1
+   FC =  0.5
+   TNOM =  27
)

.MODEL 2N5447 PNP (
+   IS =  6.506e-16
+   BF =  133.8
+   BR =  3.73
+   RB =  10
+   RE =  0
+   RC =  0.715
+   CJS =  0
+   CJE =  1.982e-11
+   CJC =  1.476e-11
+   VJE =  0.75
+   VJC =  0.75
+   TF =  7.613e-10
+   TR =  1.141e-07
+   MJE =  0.3357
+   MJC =  0.5383
+   VA =  115.7
+   ISE =  9.716e-14
+   IKF =  1.081
+   NE =  1.832
+   NF =  1
+   NR =  1
+   VAR =  1e+30
+   IKR =  0
+   ISC =  0
+   NC =  2
+   IRB =  1e+30
+   RBM =  0
+   XTF =  1.7
+   VTF =  5
+   ITF =  0.65
+   PTF =  0
+   XCJC =  1
+   VJS =  0.75
+   MJS =  0
+   XTB =  1.5
+   EG =  1.11
+   XTI =  3
+   KF =  0
+   AF =  1
+   FC =  0.5
+   TNOM =  27
)

.MODEL 2N5771 PNP (
+   IS =  5.456e-16
+   BF =  76.77
+   BR =  1.365
+   RB =  10
+   RE =  0
+   RC =  3.75
+   CJS =  0
+   CJE =  2.65e-12
+   CJC =  2.77e-12
+   VJE =  0.75
+   VJC =  0.75
+   TF =  1.185e-10
+   TR =  4.033e-09
+   MJE =  0.3083
+   MJC =  0.1416
+   VA =  100
+   ISE =  0
+   IKF =  0.05
+   NE =  1.5
+   NF =  1
+   NR =  1
+   VAR =  1e+30
+   IKR =  0
+   ISC =  0
+   NC =  2
+   IRB =  1e+30
+   RBM =  0
+   XTF =  6
+   VTF =  3
+   ITF =  0.5
+   PTF =  0
+   XCJC =  1
+   VJS =  0.75
+   MJS =  0
+   XTB =  1.5
+   EG =  1.11
+   XTI =  3
+   KF =  0
+   AF =  1
+   FC =  0.5
+   TNOM =  27
)

.MODEL 2N5817 PNP (
+   IS =  6.506e-16
+   BF =  127
+   BR =  3.752
+   RB =  10
+   RE =  0
+   RC =  0.715
+   CJS =  0
+   CJE =  1.982e-11
+   CJC =  1.476e-11
+   VJE =  0.75
+   VJC =  0.75
+   TF =  7.613e-10
+   TR =  1.144e-07
+   MJE =  0.3357
+   MJC =  0.5383
+   VA =  115.7
+   ISE =  9.999e-14
+   IKF =  1.079
+   NE =  1.829
+   NF =  1
+   NR =  1
+   VAR =  1e+30
+   IKR =  0
+   ISC =  0
+   NC =  2
+   IRB =  1e+30
+   RBM =  0
+   XTF =  1.7
+   VTF =  5
+   ITF =  0.65
+   PTF =  0
+   XCJC =  1
+   VJS =  0.75
+   MJS =  0
+   XTB =  1.5
+   EG =  1.11
+   XTI =  3
+   KF =  0
+   AF =  1
+   FC =  0.5
+   TNOM =  27
)

.MODEL MPS3638A PNP (
+   IS =  6.506e-16
+   BF =  164.7
+   BR =  3.654
+   RB =  10
+   RE =  0
+   RC =  0.715
+   CJS =  0
+   CJE =  1.982e-11
+   CJC =  1.476e-11
+   VJE =  0.75
+   VJC =  0.75
+   TF =  7.613e-10
+   TR =  1.128e-07
+   MJE =  0.3357
+   MJC =  0.5383
+   VA =  115.7
+   ISE =  8.013e-14
+   IKF =  1.082
+   NE =  1.834
+   NF =  1
+   NR =  1
+   VAR =  1e+30
+   IKR =  0
+   ISC =  0
+   NC =  2
+   IRB =  1e+30
+   RBM =  0
+   XTF =  1.7
+   VTF =  5
+   ITF =  0.65
+   PTF =  0
+   XCJC =  1
+   VJS =  0.75
+   MJS =  0
+   XTB =  1.5
+   EG =  1.11
+   XTI =  3
+   KF =  0
+   AF =  1
+   FC =  0.5
+   TNOM =  27
)

.MODEL MPS3644 PNP (
+   IS =  6.506e-16
+   BF =  231.7
+   BR =  3.563
+   RB =  10
+   RE =  0
+   RC =  0.715
+   CJS =  0
+   CJE =  1.982e-11
+   CJC =  1.476e-11
+   VJE =  0.75
+   VJC =  0.75
+   TF =  6.037e-10
+   TR =  1.113e-07
+   MJE =  0.3357
+   MJC =  0.5383
+   VA =  115.7
+   ISE =  5.481e-14
+   IKF =  1.079
+   NE =  1.829
+   NF =  1
+   NR =  1
+   VAR =  1e+30
+   IKR =  0
+   ISC =  0
+   NC =  2
+   IRB =  1e+30
+   RBM =  0
+   XTF =  1.7
+   VTF =  5
+   ITF =  0.65
+   PTF =  0
+   XCJC =  1
+   VJS =  0.75
+   MJS =  0
+   XTB =  1.5
+   EG =  1.11
+   XTI =  3
+   KF =  0
+   AF =  1
+   FC =  0.5
+   TNOM =  27
)

.MODEL MPS3702 PNP (
+   IS =  6.506e-16
+   BF =  133.8
+   BR =  3.73
+   RB =  10
+   RE =  0
+   RC =  0.715
+   CJS =  0
+   CJE =  1.982e-11
+   CJC =  1.476e-11
+   VJE =  0.75
+   VJC =  0.75
+   TF =  7.613e-10
+   TR =  1.141e-07
+   MJE =  0.3357
+   MJC =  0.5383
+   VA =  115.7
+   ISE =  9.716e-14
+   IKF =  1.081
+   NE =  1.832
+   NF =  1
+   NR =  1
+   VAR =  1e+30
+   IKR =  0
+   ISC =  0
+   NC =  2
+   IRB =  1e+30
+   RBM =  0
+   XTF =  1.7
+   VTF =  5
+   ITF =  0.65
+   PTF =  0
+   XCJC =  1
+   VJS =  0.75
+   MJS =  0
+   XTB =  1.5
+   EG =  1.11
+   XTI =  3
+   KF =  0
+   AF =  1
+   FC =  0.5
+   TNOM =  27
)

.MODEL MPS3703 PNP (
+   IS =  6.506e-16
+   BF =  66.92
+   BR =  4.197
+   RB =  10
+   RE =  0
+   RC =  0.715
+   CJS =  0
+   CJE =  1.982e-11
+   CJC =  1.476e-11
+   VJE =  0.75
+   VJC =  0.75
+   TF =  7.613e-10
+   TR =  1.206e-07
+   MJE =  0.3357
+   MJC =  0.5383
+   VA =  115.7
+   ISE =  1.897e-13
+   IKF =  1.079
+   NE =  1.829
+   NF =  1
+   NR =  1
+   VAR =  1e+30
+   IKR =  0
+   ISC =  0
+   NC =  2
+   IRB =  1e+30
+   RBM =  0
+   XTF =  1.7
+   VTF =  5
+   ITF =  0.65
+   PTF =  0
+   XCJC =  1
+   VJS =  0.75
+   MJS =  0
+   XTB =  1.5
+   EG =  1.11
+   XTI =  3
+   KF =  0
+   AF =  1
+   FC =  0.5
+   TNOM =  27
)

.MODEL MPS6516 PNP (
+   IS =  1.41e-15
+   BF =  97.44
+   BR =  5.419
+   RB =  10
+   RE =  0
+   RC =  2.5
+   CJS =  0
+   CJE =  8.063e-12
+   CJC =  9.728e-12
+   VJE =  0.75
+   VJC =  0.75
+   TF =  1.793e-10
+   TR =  3.481e-08
+   MJE =  0.3677
+   MJC =  0.5776
+   VA =  18.7
+   ISE =  0
+   IKF =  0.08
+   NE =  1.5
+   NF =  1
+   NR =  1
+   VAR =  1e+30
+   IKR =  0
+   ISC =  0
+   NC =  2
+   IRB =  1e+30
+   RBM =  0
+   XTF =  6
+   VTF =  4
+   ITF =  0.4
+   PTF =  0
+   XCJC =  1
+   VJS =  0.75
+   MJS =  0
+   XTB =  1.5
+   EG =  1.11
+   XTI =  3
+   KF =  0
+   AF =  1
+   FC =  0.5
+   TNOM =  27
)

.MODEL MPS6517 PNP (
+   IS =  1.41e-15
+   BF =  175.4
+   BR =  4.991
+   RB =  10
+   RE =  0
+   RC =  2.5
+   CJS =  0
+   CJE =  8.063e-12
+   CJC =  9.728e-12
+   VJE =  0.75
+   VJC =  0.75
+   TF =  1.793e-10
+   TR =  3.347e-08
+   MJE =  0.3677
+   MJC =  0.5776
+   VA =  18.7
+   ISE =  0
+   IKF =  0.08
+   NE =  1.5
+   NF =  1
+   NR =  1
+   VAR =  1e+30
+   IKR =  0
+   ISC =  0
+   NC =  2
+   IRB =  1e+30
+   RBM =  0
+   XTF =  6
+   VTF =  4
+   ITF =  0.4
+   PTF =  0
+   XCJC =  1
+   VJS =  0.75
+   MJS =  0
+   XTB =  1.5
+   EG =  1.11
+   XTI =  3
+   KF =  0
+   AF =  1
+   FC =  0.5
+   TNOM =  27
)

.MODEL MPS6518 PNP (
+   IS =  1.41e-15
+   BF =  292.3
+   BR =  4.802
+   RB =  10
+   RE =  0
+   RC =  2.5
+   CJS =  0
+   CJE =  8.063e-12
+   CJC =  9.728e-12
+   VJE =  0.75
+   VJC =  0.75
+   TF =  1.793e-10
+   TR =  3.279e-08
+   MJE =  0.3677
+   MJC =  0.5776
+   VA =  18.7
+   ISE =  0
+   IKF =  0.08
+   NE =  1.5
+   NF =  1
+   NR =  1
+   VAR =  1e+30
+   IKR =  0
+   ISC =  0
+   NC =  2
+   IRB =  1e+30
+   RBM =  0
+   XTF =  6
+   VTF =  4
+   ITF =  0.4
+   PTF =  0
+   XCJC =  1
+   VJS =  0.75
+   MJS =  0
+   XTB =  1.5
+   EG =  1.11
+   XTI =  3
+   KF =  0
+   AF =  1
+   FC =  0.5
+   TNOM =  27
)

.MODEL MPS6522 PNP (
+   IS =  3.983e-15
+   BF =  479.5
+   BR =  1.69
+   RB =  10
+   RE =  0
+   RC =  1.6
+   CJS =  0
+   CJE =  9.408e-12
+   CJC =  7.327e-12
+   VJE =  0.75
+   VJC =  0.75
+   TF =  3.44e-10
+   TR =  2.743e-07
+   MJE =  0.3462
+   MJC =  0.4877
+   VA =  40.7
+   ISE =  3.983e-15
+   IKF =  0.03799
+   NE =  1.322
+   NF =  1
+   NR =  1
+   VAR =  1e+30
+   IKR =  0
+   ISC =  0
+   NC =  2
+   IRB =  1e+30
+   RBM =  0
+   XTF =  4
+   VTF =  18
+   ITF =  0.2
+   PTF =  0
+   XCJC =  1
+   VJS =  0.75
+   MJS =  0
+   XTB =  1.5
+   EG =  1.11
+   XTI =  3
+   KF =  0
+   AF =  1
+   FC =  0.5
+   TNOM =  27
)

.MODEL MPS6523 PNP (
+   IS =  6.734e-15
+   BF =  446.6
+   BR =  2.624
+   RB =  10
+   RE =  0
+   RC =  1.67
+   CJS =  0
+   CJE =  7.5e-12
+   CJC =  6.2e-12
+   VJE =  0.75
+   VJC =  0.75
+   TF =  4.68e-10
+   TR =  9.802e-09
+   MJE =  0.2861
+   MJC =  0.301
+   VA =  45.7
+   ISE =  6.734e-15
+   IKF =  0.2112
+   NE =  1.83
+   NF =  1
+   NR =  1
+   VAR =  1e+30
+   IKR =  0
+   ISC =  0
+   NC =  2
+   IRB =  1e+30
+   RBM =  0
+   XTF =  8
+   VTF =  5
+   ITF =  0.17
+   PTF =  0
+   XCJC =  1
+   VJS =  0.75
+   MJS =  0
+   XTB =  1.5
+   EG =  1.11
+   XTI =  3
+   KF =  0
+   AF =  1
+   FC =  0.5
+   TNOM =  27
)

.MODEL MPS6533 PNP (
+   IS =  6.506e-16
+   BF =  77.22
+   BR =  4.061
+   RB =  10
+   RE =  0
+   RC =  0.715
+   CJS =  0
+   CJE =  1.982e-11
+   CJC =  1.476e-11
+   VJE =  0.75
+   VJC =  0.75
+   TF =  7.613e-10
+   TR =  1.189e-07
+   MJE =  0.3357
+   MJC =  0.5383
+   VA =  115.7
+   ISE =  1.644e-13
+   IKF =  1.079
+   NE =  1.829
+   NF =  1
+   NR =  1
+   VAR =  1e+30
+   IKR =  0
+   ISC =  0
+   NC =  2
+   IRB =  1e+30
+   RBM =  0
+   XTF =  1.7
+   VTF =  5
+   ITF =  0.65
+   PTF =  0
+   XCJC =  1
+   VJS =  0.75
+   MJS =  0
+   XTB =  1.5
+   EG =  1.11
+   XTI =  3
+   KF =  0
+   AF =  1
+   FC =  0.5
+   TNOM =  27
)

.MODEL MPS6534 PNP (
+   IS =  6.506e-16
+   BF =  173.2
+   BR =  3.637
+   RB =  10
+   RE =  0
+   RC =  0.715
+   CJS =  0
+   CJE =  1.982e-11
+   CJC =  1.476e-11
+   VJE =  0.75
+   VJC =  0.75
+   TF =  7.613e-10
+   TR =  1.126e-07
+   MJE =  0.3357
+   MJC =  0.5383
+   VA =  115.7
+   ISE =  8.579e-14
+   IKF =  1.103
+   NE =  1.851
+   NF =  1
+   NR =  1
+   VAR =  1e+30
+   IKR =  0
+   ISC =  0
+   NC =  2
+   IRB =  1e+30
+   RBM =  0
+   XTF =  1.7
+   VTF =  5
+   ITF =  0.65
+   PTF =  0
+   XCJC =  1
+   VJS =  0.75
+   MJS =  0
+   XTB =  1.5
+   EG =  1.11
+   XTI =  3
+   KF =  0
+   AF =  1
+   FC =  0.5
+   TNOM =  27
)

.MODEL MPS6562 PNP (
+   IS =  1.227e-11
+   BF =  121
+   BR =  1.238
+   RB =  10
+   RE =  0
+   RC =  0.6
+   CJS =  0
+   CJE =  1.067e-10
+   CJC =  4.828e-11
+   VJE =  0.75
+   VJC =  0.75
+   TF =  8.663e-10
+   TR =  4.86e-07
+   MJE =  0.5168
+   MJC =  0.5615
+   VA =  100
+   ISE =  1.227e-11
+   IKF =  1.05
+   NE =  1.573
+   NF =  1
+   NR =  1
+   VAR =  1e+30
+   IKR =  0
+   ISC =  0
+   NC =  2
+   IRB =  1e+30
+   RBM =  0
+   XTF =  0.8
+   VTF =  2
+   ITF =  0.2
+   PTF =  0
+   XCJC =  1
+   VJS =  0.75
+   MJS =  0
+   XTB =  1.5
+   EG =  1.11
+   XTI =  3
+   KF =  0
+   AF =  1
+   FC =  0.5
+   TNOM =  27
)

.MODEL MPS8598 PNP (
+   IS =  1.068e-14
+   BF =  187.7
+   BR =  1.833
+   RB =  10
+   RE =  0
+   RC =  0.8
+   CJS =  0
+   CJE =  2.511e-11
+   CJC =  1.416e-11
+   VJE =  0.75
+   VJC =  0.75
+   TF =  5.911e-10
+   TR =  3.586e-07
+   MJE =  0.3626
+   MJC =  0.5585
+   VA =  100
+   ISE =  2.607e-14
+   IKF =  0.2203
+   NE =  1.401
+   NF =  1
+   NR =  1
+   VAR =  1e+30
+   IKR =  0
+   ISC =  0
+   NC =  2
+   IRB =  1e+30
+   RBM =  0
+   XTF =  50
+   VTF =  12
+   ITF =  1.5
+   PTF =  0
+   XCJC =  1
+   VJS =  0.75
+   MJS =  0
+   XTB =  1.5
+   EG =  1.11
+   XTI =  3
+   KF =  0
+   AF =  1
+   FC =  0.5
+   TNOM =  27
)

.MODEL MPSA55 PNP (
+   IS =  1.227e-11
+   BF =  91.63
+   BR =  1.287
+   RB =  10
+   RE =  0
+   RC =  0.6
+   CJS =  0
+   CJE =  1.067e-10
+   CJC =  4.828e-11
+   VJE =  0.75
+   VJC =  0.75
+   TF =  8.658e-10
+   TR =  4.963e-07
+   MJE =  0.5168
+   MJC =  0.5615
+   VA =  100
+   ISE =  1.227e-11
+   IKF =  1.009
+   NE =  1.531
+   NF =  1
+   NR =  1
+   VAR =  1e+30
+   IKR =  0
+   ISC =  0
+   NC =  2
+   IRB =  1e+30
+   RBM =  0
+   XTF =  0.8
+   VTF =  2
+   ITF =  0.2
+   PTF =  0
+   XCJC =  1
+   VJS =  0.75
+   MJS =  0
+   XTB =  1.5
+   EG =  1.11
+   XTI =  3
+   KF =  0
+   AF =  1
+   FC =  0.5
+   TNOM =  27
)

.MODEL MPSA56 PNP (
+   IS =  1.227e-11
+   BF =  91.63
+   BR =  1.287
+   RB =  10
+   RE =  0
+   RC =  0.6
+   CJS =  0
+   CJE =  1.067e-10
+   CJC =  4.828e-11
+   VJE =  0.75
+   VJC =  0.75
+   TF =  8.658e-10
+   TR =  4.963e-07
+   MJE =  0.5168
+   MJC =  0.5615
+   VA =  100
+   ISE =  1.227e-11
+   IKF =  1.009
+   NE =  1.531
+   NF =  1
+   NR =  1
+   VAR =  1e+30
+   IKR =  0
+   ISC =  0
+   NC =  2
+   IRB =  1e+30
+   RBM =  0
+   XTF =  0.8
+   VTF =  2
+   ITF =  0.2
+   PTF =  0
+   XCJC =  1
+   VJS =  0.75
+   MJS =  0
+   XTB =  1.5
+   EG =  1.11
+   XTI =  3
+   KF =  0
+   AF =  1
+   FC =  0.5
+   TNOM =  27
)

.MODEL MPSA70 PNP (
+   IS =  6.734e-15
+   BF =  144.4
+   BR =  2.795
+   RB =  10
+   RE =  0
+   RC =  1.67
+   CJS =  0
+   CJE =  7.5e-12
+   CJC =  6.2e-12
+   VJE =  0.75
+   VJC =  0.75
+   TF =  4.673e-10
+   TR =  1.07e-08
+   MJE =  0.2861
+   MJC =  0.301
+   VA =  45.7
+   ISE =  6.734e-15
+   IKF =  0.1765
+   NE =  1.655
+   NF =  1
+   NR =  1
+   VAR =  1e+30
+   IKR =  0
+   ISC =  0
+   NC =  2
+   IRB =  1e+30
+   RBM =  0
+   XTF =  8
+   VTF =  5
+   ITF =  0.17
+   PTF =  0
+   XCJC =  1
+   VJS =  0.75
+   MJS =  0
+   XTB =  1.5
+   EG =  1.11
+   XTI =  3
+   KF =  0
+   AF =  1
+   FC =  0.5
+   TNOM =  27
)

.MODEL MPSA92 PNP (
+   IS =  2.189e-13
+   BF =  99
+   BR =  24.67
+   RB =  10
+   RE =  0
+   RC =  7
+   CJS =  0
+   CJE =  8.149e-11
+   CJC =  1.988e-11
+   VJE =  0.75
+   VJC =  0.75
+   TF =  1.395e-09
+   TR =  5.169e-10
+   MJE =  0.3493
+   MJC =  0.4876
+   VA =  100
+   ISE =  2.189e-13
+   IKF =  0.2016
+   NE =  1.307
+   NF =  1
+   NR =  1
+   VAR =  1e+30
+   IKR =  0
+   ISC =  0
+   NC =  2
+   IRB =  1e+30
+   RBM =  0
+   XTF =  270
+   VTF =  22
+   ITF =  1.5
+   PTF =  0
+   XCJC =  1
+   VJS =  0.75
+   MJS =  0
+   XTB =  1.5
+   EG =  1.11
+   XTI =  3
+   KF =  0
+   AF =  1
+   FC =  0.5
+   TNOM =  27
)

.MODEL MPSA93 PNP (
+   IS =  2.189e-13
+   BF =  99
+   BR =  24.67
+   RB =  10
+   RE =  0
+   RC =  7
+   CJS =  0
+   CJE =  8.149e-11
+   CJC =  1.988e-11
+   VJE =  0.75
+   VJC =  0.75
+   TF =  1.395e-09
+   TR =  5.169e-10
+   MJE =  0.3493
+   MJC =  0.4876
+   VA =  100
+   ISE =  2.189e-13
+   IKF =  0.2016
+   NE =  1.307
+   NF =  1
+   NR =  1
+   VAR =  1e+30
+   IKR =  0
+   ISC =  0
+   NC =  2
+   IRB =  1e+30
+   RBM =  0
+   XTF =  270
+   VTF =  22
+   ITF =  1.5
+   PTF =  0
+   XCJC =  1
+   VJS =  0.75
+   MJS =  0
+   XTB =  1.5
+   EG =  1.11
+   XTI =  3
+   KF =  0
+   AF =  1
+   FC =  0.5
+   TNOM =  27
)

.MODEL MPSL51 PNP (
+   IS =  2.148e-14
+   BF =  116.7
+   BR =  3.728
+   RB =  10
+   RE =  0
+   RC =  1.6
+   CJS =  0
+   CJE =  7.339e-11
+   CJC =  2.116e-11
+   VJE =  0.75
+   VJC =  0.75
+   TF =  6.391e-10
+   TR =  1.487e-09
+   MJE =  0.3777
+   MJC =  0.5312
+   VA =  100
+   ISE =  2.148e-14
+   IKF =  0.1803
+   NE =  1.362
+   NF =  1
+   NR =  1
+   VAR =  1e+30
+   IKR =  0
+   ISC =  0
+   NC =  2
+   IRB =  1e+30
+   RBM =  0
+   XTF =  0
+   VTF =  0
+   ITF =  0
+   PTF =  0
+   XCJC =  1
+   VJS =  0.75
+   MJS =  0
+   XTB =  1.5
+   EG =  1.11
+   XTI =  3
+   KF =  0
+   AF =  1
+   FC =  0.5
+   TNOM =  27
)

.MODEL MPSW51 PNP (
+   IS =  2.464e-14
+   BF =  154.5
+   BR =  1.424
+   RB =  10
+   RE =  0
+   RC =  0.6
+   CJS =  0
+   CJE =  1.324e-10
+   CJC =  6.367e-11
+   VJE =  0.75
+   VJC =  0.75
+   TF =  6.454e-10
+   TR =  5.721e-09
+   MJE =  0.4174
+   MJC =  0.4749
+   VA =  100
+   ISE =  0
+   IKF =  1.25
+   NE =  1.5
+   NF =  1
+   NR =  1
+   VAR =  1e+30
+   IKR =  0
+   ISC =  0
+   NC =  2
+   IRB =  1e+30
+   RBM =  0
+   XTF =  4.5
+   VTF =  6
+   ITF =  0.8
+   PTF =  0
+   XCJC =  1
+   VJS =  0.75
+   MJS =  0
+   XTB =  1.5
+   EG =  1.11
+   XTI =  3
+   KF =  0
+   AF =  1
+   FC =  0.5
+   TNOM =  27
)

.MODEL MPSW51A PNP (
+   IS =  2.464e-14
+   BF =  154.5
+   BR =  1.424
+   RB =  10
+   RE =  0
+   RC =  0.6
+   CJS =  0