
.MODEL T101 NPN (
+   IS =  1.01e-07
+   BF =  40.2
+   BR =  1
+   RB =  2
+   RE =  0
+   RC =  0
+   CJS =  1e-10
+   CJE =  0
+   CJC =  0
+   VJE =  0.75
+   VJC =  0.75
+   TF =  0
+   TR =  0
+   MJE =  0.33
+   MJC =  0.33
+   VA =  50
+   ISE =  1e-08
+   IKF =  0.01
+   NE =  1.5
+   NF =  0.9
+   NR =  1
+   VAR =  50
+   IKR =  0.01
+   ISC =  0
+   NC =  2
+   IRB =  0.01
+   RBM =  0
+   XTF =  0
+   VTF =  50
+   ITF =  0
+   PTF =  0
+   XCJC =  1
+   VJS =  0.75
+   MJS =  0
+   XTB =  0
+   EG =  1.11
+   XTI =  3
+   KF =  0
+   AF =  1
+   FC =  0.5
+   TNOM =  27
)

.MODEL T102 NPN (
+   IS =  1.05e-07
+   BF =  41.2
+   BR =  1
+   RB =  2
+   RE =  0
+   RC =  0
+   CJS =  1e-10
+   CJE =  0
+   CJC =  0
+   VJE =  0.75
+   VJC =  0.75
+   TF =  0
+   TR =  0
+   MJE =  0.33
+   MJC =  0.33
+   VA =  50
+   ISE =  1e-08
+   IKF =  0.01
+   NE =  1.5
+   NF =  0.9
+   NR =  1
+   VAR =  50
+   IKR =  0.01
+   ISC =  0
+   NC =  2
+   IRB =  0.01
+   RBM =  0
+   XTF =  0
+   VTF =  50
+   ITF =  0
+   PTF =  0
+   XCJC =  1
+   VJS =  0.75
+   MJS =  0
+   XTB =  0
+   EG =  1.11
+   XTI =  3
+   KF =  0
+   AF =  1
+   FC =  0.5
+   TNOM =  27
)

.MODEL T103 NPN (
+   IS =  1.09e-07
+   BF =  42.2
+   BR =  1
+   RB =  2
+   RE =  0
+   RC =  0
+   CJS =  1e-10
+   CJE =  0
+   CJC =  0
+   VJE =  0.75
+   VJC =  0.75
+   TF =  0
+   TR =  0
+   MJE =  0.33
+   MJC =  0.33
+   VA =  50
+   ISE =  1e-08
+   IKF =  0.01
+   NE =  1.5
+   NF =  0.9
+   NR =  1
+   VAR =  50
+   IKR =  0.01
+   ISC =  0
+   NC =  2
+   IRB =  0.01
+   RBM =  0
+   XTF =  0
+   VTF =  50
+   ITF =  0
+   PTF =  0
+   XCJC =  1
+   VJS =  0.75
+   MJS =  0
+   XTB =  0
+   EG =  1.11
+   XTI =  3
+   KF =  0
+   AF =  1
+   FC =  0.5
+   TNOM =  27
)

.MODEL T104 NPN (
+   IS =  1.13e-07
+   BF =  43.2
+   BR =  1
+   RB =  2
+   RE =  0
+   RC =  0
+   CJS =  1e-10
+   CJE =  0
+   CJC =  0
+   VJE =  0.75
+   VJC =  0.75
+   TF =  0
+   TR =  0
+   MJE =  0.33
+   MJC =  0.33
+   VA =  50
+   ISE =  1e-08
+   IKF =  0.01
+   NE =  1.5
+   NF =  0.9
+   NR =  1
+   VAR =  50
+   IKR =  0.01
+   ISC =  0
+   NC =  2
+   IRB =  0.01
+   RBM =  0
+   XTF =  0
+   VTF =  50
+   ITF =  0
+   PTF =  0
+   XCJC =  1
+   VJS =  0.75
+   MJS =  0
+   XTB =  0
+   EG =  1.11
+   XTI =  3
+   KF =  0
+   AF =  1
+   FC =  0.5
+   TNOM =  27
)

.MODEL T105 NPN (
+   IS =  1.17e-07
+   BF =  44.2
+   BR =  1
+   RB =  2
+   RE =  0
+   RC =  0
+   CJS =  1e-10
+   CJE =  0
+   CJC =  0
+   VJE =  0.75
+   VJC =  0.75
+   TF =  0
+   TR =  0
+   MJE =  0.33
+   MJC =  0.33
+   VA =  50
+   ISE =  1e-08
+   IKF =  0.01
+   NE =  1.5
+   NF =  0.9
+   NR =  1
+   VAR =  50
+   IKR =  0.01
+   ISC =  0
+   NC =  2
+   IRB =  0.01
+   RBM =  0
+   XTF =  0
+   VTF =  50
+   ITF =  0
+   PTF =  0
+   XCJC =  1
+   VJS =  0.75
+   MJS =  0
+   XTB =  0
+   EG =  1.11
+   XTI =  3
+   KF =  0
+   AF =  1
+   FC =  0.5
+   TNOM =  27
)

.MODEL T106 NPN (
+   IS =  1.21e-07
+   BF =  45.2
+   BR =  1
+   RB =  2
+   RE =  0
+   RC =  0
+   CJS =  1e-10
+   CJE =  0
+   CJC =  0
+   VJE =  0.75
+   VJC =  0.75
+   TF =  0
+   TR =  0
+   MJE =  0.33
+   MJC =  0.33
+   VA =  50
+   ISE =  1e-08
+   IKF =  0.01
+   NE =  1.5
+   NF =  0.9
+   NR =  1
+   VAR =  50
+   IKR =  0.01
+   ISC =  0
+   NC =  2
+   IRB =  0.01
+   RBM =  0
+   XTF =  0
+   VTF =  50
+   ITF =  0
+   PTF =  0
+   XCJC =  1
+   VJS =  0.75
+   MJS =  0
+   XTB =  0
+   EG =  1.11
+   XTI =  3
+   KF =  0
+   AF =  1
+   FC =  0.5
+   TNOM =  27
)

.MODEL T107 NPN (
+   IS =  1.25e-07
+   BF =  46.2
+   BR =  1
+   RB =  2
+   RE =  0
+   RC =  0
+   CJS =  1e-10
+   CJE =  0
+   CJC =  0
+   VJE =  0.75
+   VJC =  0.75
+   TF =  0
+   TR =  0
+   MJE =  0.33
+   MJC =  0.33
+   VA =  50
+   ISE =  1e-08
+   IKF =  0.01
+   NE =  1.5
+   NF =  0.9
+   NR =  1
+   VAR =  50
+   IKR =  0.01
+   ISC =  0
+   NC =  2
+   IRB =  0.01
+   RBM =  0
+   XTF =  0
+   VTF =  50
+   ITF =  0
+   PTF =  0
+   XCJC =  1
+   VJS =  0.75
+   MJS =  0
+   XTB =  0
+   EG =  1.11
+   XTI =  3
+   KF =  0
+   AF =  1
+   FC =  0.5
+   TNOM =  27
)

.MODEL T108 NPN (
+   IS =  1.29e-07
+   BF =  47.2
+   BR =  1
+   RB =  2
+   RE =  0
+   RC =  0
+   CJS =  1e-10
+   CJE =  0
+   CJC =  0
+   VJE =  0.75
+   VJC =  0.75
+   TF =  0
+   TR =  0
+   MJE =  0.33
+   MJC =  0.33
+   VA =  50
+   ISE =  1e-08
+   IKF =  0.01
+   NE =  1.5
+   NF =  0.9
+   NR =  1
+   VAR =  50
+   IKR =  0.01
+   ISC =  0
+   NC =  2
+   IRB =  0.01
+   RBM =  0
+   XTF =  0
+   VTF =  50
+   ITF =  0
+   PTF =  0
+   XCJC =  1
+   VJS =  0.75
+   MJS =  0
+   XTB =  0
+   EG =  1.11
+   XTI =  3
+   KF =  0
+   AF =  1
+   FC =  0.5
+   TNOM =  27
)

.MODEL T109 NPN (
+   IS =  1.33e-07
+   BF =  48.2
+   BR =  1
+   RB =  2
+   RE =  0
+   RC =  0
+   CJS =  1e-10
+   CJE =  0
+   CJC =  0
+   VJE =  0.75
+   VJC =  0.75
+   TF =  0
+   TR =  0
+   MJE =  0.33
+   MJC =  0.33
+   VA =  50
+   ISE =  1e-08
+   IKF =  0.01
+   NE =  1.5
+   NF =  0.9
+   NR =  1
+   VAR =  50
+   IKR =  0.01
+   ISC =  0
+   NC =  2
+   IRB =  0.01
+   RBM =  0
+   XTF =  0
+   VTF =  50
+   ITF =  0
+   PTF =  0
+   XCJC =  1
+   VJS =  0.75
+   MJS =  0
+   XTB =  0
+   EG =  1.11
+   XTI =  3
+   KF =  0
+   AF =  1
+   FC =  0.5
+   TNOM =  27
)

.MODEL T110 NPN (
+   IS =  1.37e-07
+   BF =  49.2
+   BR =  1
+   RB =  2
+   RE =  0
+   RC =  0
+   CJS =  1e-10
+   CJE =  0
+   CJC =  0
+   VJE =  0.75
+   VJC =  0.75
+   TF =  0
+   TR =  0
+   MJE =  0.33
+   MJC =  0.33
+   VA =  50
+   ISE =  1e-08
+   IKF =  0.01
+   NE =  1.5
+   NF =  0.9
+   NR =  1
+   VAR =  50
+   IKR =  0.01
+   ISC =  0
+   NC =  2
+   IRB =  0.01
+   RBM =  0
+   XTF =  0
+   VTF =  50
+   ITF =  0
+   PTF =  0
+   XCJC =  1
+   VJS =  0.75
+   MJS =  0
+   XTB =  0
+   EG =  1.11
+   XTI =  3
+   KF =  0
+   AF =  1
+   FC =  0.5
+   TNOM =  27
)

.MODEL T111 NPN (
+   IS =  1.41e-07
+   BF =  50.2
+   BR =  1
+   RB =  2
+   RE =  0
+   RC =  0
+   CJS =  1e-10
+   CJE =  0
+   CJC =  0
+   VJE =  0.75
+   VJC =  0.75
+   TF =  0
+   TR =  0
+   MJE =  0.33
+   MJC =  0.33
+   VA =  50
+   ISE =  1e-08
+   IKF =  0.01
+   NE =  1.5
+   NF =  0.9
+   NR =  1
+   VAR =  50
+   IKR =  0.01
+   ISC =  0
+   NC =  2
+   IRB =  0.01
+   RBM =  0
+   XTF =  0
+   VTF =  50
+   ITF =  0
+   PTF =  0
+   XCJC =  1
+   VJS =  0.75
+   MJS =  0
+   XTB =  0
+   EG =  1.11
+   XTI =  3
+   KF =  0
+   AF =  1
+   FC =  0.5
+   TNOM =  27
)

.MODEL T112 NPN (
+   IS =  1.45e-07
+   BF =  51.2
+   BR =  1
+   RB =  2
+   RE =  0
+   RC =  0
+   CJS =  1e-10
+   CJE =  0
+   CJC =  0
+   VJE =  0.75
+   VJC =  0.75
+   TF =  0
+   TR =  0
+   MJE =  0.33
+   MJC =  0.33
+   VA =  50
+   ISE =  1e-08
+   IKF =  0.01
+   NE =  1.5
+   NF =  0.9
+   NR =  1
+   VAR =  50
+   IKR =  0.01
+   ISC =  0
+   NC =  2
+   IRB =  0.01
+   RBM =  0
+   XTF =  0
+   VTF =  50
+   ITF =  0
+   PTF =  0
+   XCJC =  1
+   VJS =  0.75
+   MJS =  0
+   XTB =  0
+   EG =  1.11
+   XTI =  3
+   KF =  0
+   AF =  1
+   FC =  0.5
+   TNOM =  27
)

.MODEL T113 NPN (
+   IS =  1.49e-07
+   BF =  52.2
+   BR =  1
+   RB =  2
+   RE =  0
+   RC =  0
+   CJS =  1e-10
+   CJE =  0
+   CJC =  0
+   VJE =  0.75
+   VJC =  0.75
+   TF =  0
+   TR =  0
+   MJE =  0.33
+   MJC =  0.33
+   VA =  50
+   ISE =  1e-08
+   IKF =  0.01
+   NE =  1.5
+   NF =  0.9
+   NR =  1
+   VAR =  50
+   IKR =  0.01
+   ISC =  0
+   NC =  2
+   IRB =  0.01
+   RBM =  0
+   XTF =  0
+   VTF =  50
+   ITF =  0
+   PTF =  0
+   XCJC =  1
+   VJS =  0.75
+   MJS =  0
+   XTB =  0
+   EG =  1.11
+   XTI =  3
+   KF =  0
+   AF =  1
+   FC =  0.5
+   TNOM =  27
)

.MODEL T114 NPN (
+   IS =  1.53e-07
+   BF =  53.2
+   BR =  1
+   RB =  2
+   RE =  0
+   RC =  0
+   CJS =  1e-10
+   CJE =  0
+   CJC =  0
+   VJE =  0.75
+   VJC =  0.75
+   TF =  0
+   TR =  0
+   MJE =  0.33
+   MJC =  0.33
+   VA =  50
+   ISE =  1e-08
+   IKF =  0.01
+   NE =  1.5
+   NF =  0.9
+   NR =  1
+   VAR =  50
+   IKR =  0.01
+   ISC =  0
+   NC =  2
+   IRB =  0.01
+   RBM =  0
+   XTF =  0
+   VTF =  50
+   ITF =  0
+   PTF =  0
+   XCJC =  1
+   VJS =  0.75
+   MJS =  0
+   XTB =  0
+   EG =  1.11
+   XTI =  3
+   KF =  0
+   AF =  1
+   FC =  0.5
+   TNOM =  27
)

.MODEL T115 NPN (
+   IS =  1.57e-07
+   BF =  54.2
+   BR =  1
+   RB =  2
+   RE =  0
+   RC =  0
+   CJS =  1e-10
+   CJE =  0
+   CJC =  0
+   VJE =  0.75
+   VJC =  0.75
+   TF =  0
+   TR =  0
+   MJE =  0.33
+   MJC =  0.33
+   VA =  50
+   ISE =  1e-08
+   IKF =  0.01
+   NE =  1.5
+   NF =  0.9
+   NR =  1
+   VAR =  50
+   IKR =  0.01
+   ISC =  0
+   NC =  2
+   IRB =  0.01
+   RBM =  0
+   XTF =  0
+   VTF =  50
+   ITF =  0
+   PTF =  0
+   XCJC =  1
+   VJS =  0.75
+   MJS =  0
+   XTB =  0
+   EG =  1.11
+   XTI =  3
+   KF =  0
+   AF =  1
+   FC =  0.5
+   TNOM =  27
)

.MODEL T116 NPN (
+   IS =  1.61e-07
+   BF =  55.2
+   BR =  1
+   RB =  2
+   RE =  0
+   RC =  0
+   CJS =  1e-10
+   CJE =  0
+   CJC =  0
+   VJE =  0.75
+   VJC =  0.75
+   TF =  0
+   TR =  0
+   MJE =  0.33
+   MJC =  0.33
+   VA =  50
+   ISE =  1e-08
+   IKF =  0.01
+   NE =  1.5
+   NF =  0.9
+   NR =  1
+   VAR =  50
+   IKR =  0.01
+   ISC =  0
+   NC =  2
+   IRB =  0.01
+   RBM =  0
+   XTF =  0
+   VTF =  50
+   ITF =  0
+   PTF =  0
+   XCJC =  1
+   VJS =  0.75
+   MJS =  0
+   XTB =  0
+   EG =  1.11
+   XTI =  3
+   KF =  0
+   AF =  1
+   FC =  0.5
+   TNOM =  27
)

.MODEL T117 NPN (
+   IS =  1.65e-07
+   BF =  56.2
+   BR =  1
+   RB =  2
+   RE =  0
+   RC =  0
+   CJS =  1e-10
+   CJE =  0
+   CJC =  0
+   VJE =  0.75
+   VJC =  0.75
+   TF =  0
+   TR =  0
+   MJE =  0.33
+   MJC =  0.33
+   VA =  50
+   ISE =  1e-08
+   IKF =  0.01
+   NE =  1.5
+   NF =  0.9
+   NR =  1
+   VAR =  50
+   IKR =  0.01
+   ISC =  0
+   NC =  2
+   IRB =  0.01
+   RBM =  0
+   XTF =  0
+   VTF =  50
+   ITF =  0
+   PTF =  0
+   XCJC =  1
+   VJS =  0.75
+   MJS =  0
+   XTB =  0
+   EG =  1.11
+   XTI =  3
+   KF =  0
+   AF =  1
+   FC =  0.5
+   TNOM =  27
)

.MODEL T118 NPN (
+   IS =  1.69e-07
+   BF =  57.2
+   BR =  1
+   RB =  2
+   RE =  0
+   RC =  0
+   CJS =  1e-10
+   CJE =  0
+   CJC =  0
+   VJE =  0.75
+   VJC =  0.75
+   TF =  0
+   TR =  0
+   MJE =  0.33
+   MJC =  0.33
+   VA =  50
+   ISE =  1e-08
+   IKF =  0.01
+   NE =  1.5
+   NF =  0.9
+   NR =  1
+   VAR =  50
+   IKR =  0.01
+   ISC =  0
+   NC =  2
+   IRB =  0.01
+   RBM =  0
+   XTF =  0
+   VTF =  50
+   ITF =  0
+   PTF =  0
+   XCJC =  1
+   VJS =  0.75
+   MJS =  0
+   XTB =  0
+   EG =  1.11
+   XTI =  3
+   KF =  0
+   AF =  1
+   FC =  0.5
+   TNOM =  27
)

.MODEL T119 NPN (
+   IS =  1.73e-07
+   BF =  58.2
+   BR =  1
+   RB =  2
+   RE =  0
+   RC =  0
+   CJS =  1e-10
+   CJE =  0
+   CJC =  0
+   VJE =  0.75
+   VJC =  0.75
+   TF =  0
+   TR =  0
+   MJE =  0.33
+   MJC =  0.33
+   VA =  50
+   ISE =  1e-08
+   IKF =  0.01
+   NE =  1.5
+   NF =  0.9
+   NR =  1
+   VAR =  50
+   IKR =  0.01
+   ISC =  0
+   NC =  2
+   IRB =  0.01
+   RBM =  0
+   XTF =  0
+   VTF =  50
+   ITF =  0
+   PTF =  0
+   XCJC =  1
+   VJS =  0.75
+   MJS =  0
+   XTB =  0
+   EG =  1.11
+   XTI =  3
+   KF =  0
+   AF =  1
+   FC =  0.5
+   TNOM =  27
)

.MODEL T120 NPN (
+   IS =  1.77e-07
+   BF =  59.2
+   BR =  1
+   RB =  2
+   RE =  0
+   RC =  0
+   CJS =  1e-10
+   CJE =  0
+   CJC =  0
+   VJE =  0.75
+   VJC =  0.75
+   TF =  0
+   TR =  0
+   MJE =  0.33
+   MJC =  0.33
+   VA =  50
+   ISE =  1e-08
+   IKF =  0.01
+   NE =  1.5
+   NF =  0.9
+   NR =  1
+   VAR =  50
+   IKR =  0.01
+   ISC =  0
+   NC =  2
+   IRB =  0.01
+   RBM =  0
+   XTF =  0
+   VTF =  50
+   ITF =  0
+   PTF =  0
+   XCJC =  1
+   VJS =  0.75
+   MJS =  0
+   XTB =  0
+   EG =  1.11
+   XTI =  3
+   KF =  0
+   AF =  1
+   FC =  0.5
+   TNOM =  27
)

.MODEL T121 NPN (
+   IS =  1.02e-07
+   BF =  40.4
+   BR =  1
+   RB =  2
+   RE =  0
+   RC =  0
+   CJS =  1e-10
+   CJE =  0
+   CJC =  0
+   VJE =  0.75
+   VJC =  0.75
+   TF =  0
+   TR =  0
+   MJE =  0.33
+   MJC =  0.33
+   VA =  50
+   ISE =  1e-08
+   IKF =  0.01
+   NE =  1.5
+   NF =  0.9
+   NR =  1
+   VAR =  50
+   IKR =  0.01
+   ISC =  0
+   NC =  2
+   IRB =  0.01
+   RBM =  0
+   XTF =  0
+   VTF =  50
+   ITF =  0
+   PTF =  0
+   XCJC =  1
+   VJS =  0.75
+   MJS =  0
+   XTB =  0
+   EG =  1.11
+   XTI =  3
+   KF =  0
+   AF =  1
+   FC =  0.5
+   TNOM =  27
)

.MODEL T122 NPN (
+   IS =  1.06e-07
+   BF =  41.4
+   BR =  1
+   RB =  2
+   RE =  0
+   RC =  0
+   CJS =  1e-10
+   CJE =  0
+   CJC =  0
+   VJE =  0.75
+   VJC =  0.75
+   TF =  0
+   TR =  0
+   MJE =  0.33
+   MJC =  0.33
+   VA =  50
+   ISE =  1e-08
+   IKF =  0.01
+   NE =  1.5
+   NF =  0.9
+   NR =  1
+   VAR =  50
+   IKR =  0.01
+   ISC =  0
+   NC =  2
+   IRB =  0.01
+   RBM =  0
+   XTF =  0
+   VTF =  50
+   ITF =  0
+   PTF =  0
+   XCJC =  1
+   VJS =  0.75
+   MJS =  0
+   XTB =  0
+   EG =  1.11
+   XTI =  3
+   KF =  0
+   AF =  1
+   FC =  0.5
+   TNOM =  27
)

.MODEL T123 NPN (
+   IS =  1.1e-07
+   BF =  42.4
+   BR =  1
+   RB =  2
+   RE =  0
+   RC =  0
+   CJS =  1e-10
+   CJE =  0
+   CJC =  0
+   VJE =  0.75
+   VJC =  0.75
+   TF =  0
+   TR =  0
+   MJE =  0.33
+   MJC =  0.33
+   VA =  50
+   ISE =  1e-08
+   IKF =  0.01
+   NE =  1.5
+   NF =  0.9
+   NR =  1
+   VAR =  50
+   IKR =  0.01
+   ISC =  0
+   NC =  2
+   IRB =  0.01
+   RBM =  0
+   XTF =  0
+   VTF =  50
+   ITF =  0
+   PTF =  0
+   XCJC =  1
+   VJS =  0.75
+   MJS =  0
+   XTB =  0
+   EG =  1.11
+   XTI =  3
+   KF =  0
+   AF =  1
+   FC =  0.5
+   TNOM =  27
)

.MODEL T124 NPN (
+   IS =  1.14e-07
+   BF =  43.4
+   BR =  1
+   RB =  2
+   RE =  0
+   RC =  0
+   CJS =  1e-10
+   CJE =  0
+   CJC =  0
+   VJE =  0.75
+   VJC =  0.75
+   TF =  0
+   TR =  0
+   MJE =  0.33
+   MJC =  0.33
+   VA =  50
+   ISE =  1e-08
+   IKF =  0.01
+   NE =  1.5
+   NF =  0.9
+   NR =  1
+   VAR =  50
+   IKR =  0.01
+   ISC =  0
+   NC =  2
+   IRB =  0.01
+   RBM =  0
+   XTF =  0
+   VTF =  50
+   ITF =  0
+   PTF =  0
+   XCJC =  1
+   VJS =  0.75
+   MJS =  0
+   XTB =  0
+   EG =  1.11
+   XTI =  3
+   KF =  0
+   AF =  1
+   FC =  0.5
+   TNOM =  27
)

.MODEL T125 NPN (
+   IS =  1.18e-07
+   BF =  44.4
+   BR =  1
+   RB =  2
+   RE =  0
+   RC =  0
+   CJS =  1e-10
+   CJE =  0
+   CJC =  0
+   VJE =  0.75
+   VJC =  0.75
+   TF =  0
+   TR =  0
+   MJE =  0.33
+   MJC =  0.33
+   VA =  50
+   ISE =  1e-08
+   IKF =  0.01
+   NE =  1.5
+   NF =  0.9
+   NR =  1
+   VAR =  50
+   IKR =  0.01
+   ISC =  0
+   NC =  2
+   IRB =  0.01
+   RBM =  0
+   XTF =  0
+   VTF =  50
+   ITF =  0
+   PTF =  0
+   XCJC =  1
+   VJS =  0.75
+   MJS =  0
+   XTB =  0
+   EG =  1.11
+   XTI =  3
+   KF =  0
+   AF =  1
+   FC =  0.5
+   TNOM =  27
)

.MODEL T126 NPN (
+   IS =  1.22e-07
+   BF =  45.4
+   BR =  1
+   RB =  2
+   RE =  0
+   RC =  0
+   CJS =  1e-10
+   CJE =  0
+   CJC =  0
+   VJE =  0.75
+   VJC =  0.75
+   TF =  0
+   TR =  0
+   MJE =  0.33
+   MJC =  0.33
+   VA =  50
+   ISE =  1e-08
+   IKF =  0.01
+   NE =  1.5
+   NF =  0.9
+   NR =  1
+   VAR =  50
+   IKR =  0.01
+   ISC =  0
+   NC =  2
+   IRB =  0.01
+   RBM =  0
+   XTF =  0
+   VTF =  50
+   ITF =  0
+   PTF =  0
+   XCJC =  1
+   VJS =  0.75
+   MJS =  0
+   XTB =  0
+   EG =  1.11
+   XTI =  3
+   KF =  0
+   AF =  1
+   FC =  0.5
+   TNOM =  27
)

.MODEL T127 NPN (
+   IS =  1.26e-07
+   BF =  46.4
+   BR =  1
+   RB =  2
+   RE =  0
+   RC =  0
+   CJS =  1e-10
+   CJE =  0
+   CJC =  0
+   VJE =  0.75
+   VJC =  0.75
+   TF =  0
+   TR =  0
+   MJE =  0.33
+   MJC =  0.33
+   VA =  50
+   ISE =  1e-08
+   IKF =  0.01
+   NE =  1.5
+   NF =  0.9
+   NR =  1
+   VAR =  50
+   IKR =  0.01
+   ISC =  0
+   NC =  2
+   IRB =  0.01
+   RBM =  0
+   XTF =  0
+   VTF =  50
+   ITF =  0
+   PTF =  0
+   XCJC =  1
+   VJS =  0.75
+   MJS =  0
+   XTB =  0
+   EG =  1.11
+   XTI =  3
+   KF =  0
+   AF =  1
+   FC =  0.5
+   TNOM =  27
)

.MODEL T128 NPN (
+   IS =  1.3e-07
+   BF =  47.4
+   BR =  1
+   RB =  2
+   RE =  0
+   RC =  0
+   CJS =  1e-10
+   CJE =  0
+   CJC =  0
+   VJE =  0.75
+   VJC =  0.75
+   TF =  0
+   TR =  0
+   MJE =  0.33
+   MJC =  0.33
+   VA =  50
+   ISE =  1e-08
+   IKF =  0.01
+   NE =  1.5
+   NF =  0.9
+   NR =  1
+   VAR =  50
+   IKR =  0.01
+   ISC =  0
+   NC =  2
+   IRB =  0.01
+   RBM =  0
+   XTF =  0
+   VTF =  50
+   ITF =  0
+   PTF =  0
+   XCJC =  1
+   VJS =  0.75
+   MJS =  0
+   XTB =  0
+   EG =  1.11
+   XTI =  3
+   KF =  0
+   AF =  1
+   FC =  0.5
+   TNOM =  27
)

.MODEL T129 NPN (
+   IS =  1.34e-07
+   BF =  48.4
+   BR =  1
+   RB =  2
+   RE =  0
+   RC =  0
+   CJS =  1e-10
+   CJE =  0
+   CJC =  0
+   VJE =  0.75
+   VJC =  0.75
+   TF =  0
+   TR =  0
+   MJE =  0.33
+   MJC =  0.33
+   VA =  50
+   ISE =  1e-08
+   IKF =  0.01
+   NE =  1.5
+   NF =  0.9
+   NR =  1
+   VAR =  50
+   IKR =  0.01
+   ISC =  0
+   NC =  2
+   IRB =  0.01
+   RBM =  0
+   XTF =  0
+   VTF =  50
+   ITF =  0
+   PTF =  0
+   XCJC =  1
+   VJS =  0.75
+   MJS =  0
+   XTB =  0
+   EG =  1.11
+   XTI =  3
+   KF =  0
+   AF =  1
+   FC =  0.5
+   TNOM =  27
)

.MODEL T130 NPN (
+   IS =  1.38e-07
+   BF =  49.4
+   BR =  1
+   RB =  2
+   RE =  0
+   RC =  0
+   CJS =  1e-10
+   CJE =  0
+   CJC =  0
+   VJE =  0.75
+   VJC =  0.75
+   TF =  0
+   TR =  0
+   MJE =  0.33
+   MJC =  0.33
+   VA =  50
+   ISE =  1e-08
+   IKF =  0.01
+   NE =  1.5
+   NF =  0.9
+   NR =  1
+   VAR =  50
+   IKR =  0.01
+   ISC =  0
+   NC =  2
+   IRB =  0.01
+   RBM =  0
+   XTF =  0
+   VTF =  50
+   ITF =  0
+   PTF =  0
+   XCJC =  1
+   VJS =  0.75
+   MJS =  0
+   XTB =  0
+   EG =  1.11
+   XTI =  3
+   KF =  0
+   AF =  1
+   FC =  0.5
+   TNOM =  27
)

.MODEL T131 NPN (
+   IS =  1.42e-07
+   BF =  50.4
+   BR =  1
+   RB =  2
+   RE =  0
+   RC =  0
+   CJS =  1e-10
+   CJE =  0
+   CJC =  0
+   VJE =  0.75
+   VJC =  0.75
+   TF =  0
+   TR =  0
+   MJE =  0.33
+   MJC =  0.33
+   VA =  50
+   ISE =  1e-08
+   IKF =  0.01
+   NE =  1.5
+   NF =  0.9
+   NR =  1
+   VAR =  50
+   IKR =  0.01
+   ISC =  0
+   NC =  2
+   IRB =  0.01
+   RBM =  0
+   XTF =  0
+   VTF =  50
+   ITF =  0
+   PTF =  0
+   XCJC =  1
+   VJS =  0.75
+   MJS =  0
+   XTB =  0
+   EG =  1.11
+   XTI =  3
+   KF =  0
+   AF =  1
+   FC =  0.5
+   TNOM =  27
)

.MODEL T132 NPN (
+   IS =  1.46e-07
+   BF =  51.4
+   BR =  1
+   RB =  2
+   RE =  0
+   RC =  0
+   CJS =  1e-10
+   CJE =  0
+   CJC =  0
+   VJE =  0.75
+   VJC =  0.75
+   TF =  0
+   TR =  0
+   MJE =  0.33
+   MJC =  0.33
+   VA =  50
+   ISE =  1e-08
+   IKF =  0.01
+   NE =  1.5
+   NF =  0.9
+   NR =  1
+   VAR =  50
+   IKR =  0.01
+   ISC =  0
+   NC =  2
+   IRB =  0.01
+   RBM =  0
+   XTF =  0
+   VTF =  50
+   ITF =  0
+   PTF =  0
+   XCJC =  1
+   VJS =  0.75
+   MJS =  0
+   XTB =  0
+   EG =  1.11
+   XTI =  3
+   KF =  0
+   AF =  1
+   FC =  0.5
+   TNOM =  27
)

.MODEL T133 NPN (
+   IS =  1.5e-07
+   BF =  52.4
+   BR =  1
+   RB =  2
+   RE =  0
+   RC =  0
+   CJS =  1e-10
+   CJE =  0
+   CJC =  0
+   VJE =  0.75
+   VJC =  0.75
+   TF =  0
+   TR =  0
+   MJE =  0.33
+   MJC =  0.33
+   VA =  50
+   ISE =  1e-08
+   IKF =  0.01
+   NE =  1.5
+   NF =  0.9
+   NR =  1
+   VAR =  50
+   IKR =  0.01
+   ISC =  0
+   NC =  2
+   IRB =  0.01
+   RBM =  0
+   XTF =  0
+   VTF =  50
+   ITF =  0
+   PTF =  0
+   XCJC =  1
+   VJS =  0.75
+   MJS =  0
+   XTB =  0
+   EG =  1.11
+   XTI =  3
+   KF =  0
+   AF =  1
+   FC =  0.5
+   TNOM =  27
)

.MODEL T134 NPN (
+   IS =  1.54e-07
+   BF =  53.4
+   BR =  1
+   RB =  2
+   RE =  0
+   RC =  0
+   CJS =  1e-10
+   CJE =  0
+   CJC =  0
+   VJE =  0.75
+   VJC =  0.75
+   TF =  0
+   TR =  0
+   MJE =  0.33
+   MJC =  0.33
+   VA =  50
+   ISE =  1e-08
+   IKF =  0.01
+   NE =  1.5
+   NF =  0.9
+   NR =  1
+   VAR =  50
+   IKR =  0.01
+   ISC =  0
+   NC =  2
+   IRB =  0.01
+   RBM =  0
+   XTF =  0
+   VTF =  50
+   ITF =  0
+   PTF =  0
+   XCJC =  1
+   VJS =  0.75
+   MJS =  0
+   XTB =  0
+   EG =  1.11
+   XTI =  3
+   KF =  0
+   AF =  1
+   FC =  0.5
+   TNOM =  27
)

.MODEL T135 NPN (
+   IS =  1.58e-07
+   BF =  54.4
+   BR =  1
+   RB =  2
+   RE =  0
+   RC =  0
+   CJS =  1e-10
+   CJE =  0
+   CJC =  0
+   VJE =  0.75
+   VJC =  0.75
+   TF =  0
+   TR =  0
+   MJE =  0.33
+   MJC =  0.33
+   VA =  50
+   ISE =  1e-08
+   IKF =  0.01
+   NE =  1.5
+   NF =  0.9
+   NR =  1
+   VAR =  50
+   IKR =  0.01
+   ISC =  0
+   NC =  2
+   IRB =  0.01
+   RBM =  0
+   XTF =  0
+   VTF =  50
+   ITF =  0
+   PTF =  0
+   XCJC =  1
+   VJS =  0.75
+   MJS =  0
+   XTB =  0
+   EG =  1.11
+   XTI =  3
+   KF =  0
+   AF =  1
+   FC =  0.5
+   TNOM =  27
)

.MODEL T136 NPN (
+   IS =  1.62e-07
+   BF =  55.4
+   BR =  1
+   RB =  2
+   RE =  0
+   RC =  0
+   CJS =  1e-10
+   CJE =  0
+   CJC =  0
+   VJE =  0.75
+   VJC =  0.75
+   TF =  0
+   TR =  0
+   MJE =  0.33
+   MJC =  0.33
+   VA =  50
+   ISE =  1e-08
+   IKF =  0.01
+   NE =  1.5
+   NF =  0.9
+   NR =  1
+   VAR =  50
+   IKR =  0.01
+   ISC =  0
+   NC =  2
+   IRB =  0.01
+   RBM =  0
+   XTF =  0
+   VTF =  50
+   ITF =  0
+   PTF =  0
+   XCJC =  1
+   VJS =  0.75
+   MJS =  0
+   XTB =  0
+   EG =  1.11
+   XTI =  3
+   KF =  0
+   AF =  1
+   FC =  0.5
+   TNOM =  27
)

.MODEL T137 NPN (
+   IS =  1.66e-07
+   BF =  56.4
+   BR =  1
+   RB =  2
+   RE =  0
+   RC =  0
+   CJS =  1e-10
+   CJE =  0
+   CJC =  0
+   VJE =  0.75
+   VJC =  0.75
+   TF =  0
+   TR =  0
+   MJE =  0.33
+   MJC =  0.33
+   VA =  50
+   ISE =  1e-08
+   IKF =  0.01
+   NE =  1.5
+   NF =  0.9
+   NR =  1
+   VAR =  50
+   IKR =  0.01
+   ISC =  0
+   NC =  2
+   IRB =  0.01
+   RBM =  0
+   XTF =  0
+   VTF =  50
+   ITF =  0
+   PTF =  0
+   XCJC =  1
+   VJS =  0.75
+   MJS =  0
+   XTB =  0
+   EG =  1.11
+   XTI =  3
+   KF =  0
+   AF =  1
+   FC =  0.5
+   TNOM =  27
)

.MODEL T138 NPN (
+   IS =  1.7e-07
+   BF =  57.4
+   BR =  1
+   RB =  2
+   RE =  0
+   RC =  0
+   CJS =  1e-10
+   CJE =  0
+   CJC =  0
+   VJE =  0.75
+   VJC =  0.75
+   TF =  0
+   TR =  0
+   MJE =  0.33
+   MJC =  0.33
+   VA =  50
+   ISE =  1e-08
+   IKF =  0.01
+   NE =  1.5
+   NF =  0.9
+   NR =  1
+   VAR =  50
+   IKR =  0.01
+   ISC =  0
+   NC =  2
+   IRB =  0.01
+   RBM =  0
+   XTF =  0
+   VTF =  50
+   ITF =  0
+   PTF =  0
+   XCJC =  1
+   VJS =  0.75
+   MJS =  0
+   XTB =  0
+   EG =  1.11
+   XTI =  3
+   KF =  0
+   AF =  1
+   FC =  0.5
+   TNOM =  27
)

.MODEL T139 NPN (
+   IS =  1.74e-07
+   BF =  58.4
+   BR =  1
+   RB =  2
+   RE =  0
+   RC =  0
+   CJS =  1e-10
+   CJE =  0
+   CJC =  0
+   VJE =  0.75
+   VJC =  0.75
+   TF =  0
+   TR =  0
+   MJE =  0.33
+   MJC =  0.33
+   VA =  50
+   ISE =  1e-08
+   IKF =  0.01
+   NE =  1.5
+   NF =  0.9
+   NR =  1
+   VAR =  50
+   IKR =  0.01
+   ISC =  0
+   NC =  2
+   IRB =  0.01
+   RBM =  0
+   XTF =  0
+   VTF =  50
+   ITF =  0
+   PTF =  0
+   XCJC =  1
+   VJS =  0.75
+   MJS =  0
+   XTB =  0
+   EG =  1.11
+   XTI =  3
+   KF =  0
+   AF =  1
+   FC =  0.5
+   TNOM =  27
)

.MODEL T140 NPN (
+   IS =  1.78e-07
+   BF =  59.4
+   BR =  1
+   RB =  2
+   RE =  0
+   RC =  0
+   CJS =  1e-10
+   CJE =  0
+   CJC =  0
+   VJE =  0.75
+   VJC =  0.75
+   TF =  0
+   TR =  0
+   MJE =  0.33
+   MJC =  0.33
+   VA =  50
+   ISE =  1e-08
+   IKF =  0.01
+   NE =  1.5
+   NF =  0.9
+   NR =  1
+   VAR =  50
+   IKR =  0.01
+   ISC =  0
+   NC =  2
+   IRB =  0.01
+   RBM =  0
+   XTF =  0
+   VTF =  50
+   ITF =  0
+   PTF =  0
+   XCJC =  1
+   VJS =  0.75
+   MJS =  0
+   XTB =  0
+   EG =  1.11
+   XTI =  3
+   KF =  0
+   AF =  1
+   FC =  0.5
+   TNOM =  27
)

.MODEL T141 NPN (
+   IS =  1.03e-07
+   BF =  40.6
+   BR =  1
+   RB =  2
+   RE =  0
+   RC =  0
+   CJS =  1e-10
+   CJE =  0
+   CJC =  0
+   VJE =  0.75
+   VJC =  0.75
+   TF =  0
+   TR =  0
+   MJE =  0.33
+   MJC =  0.33
+   VA =  50
+   ISE =  1e-08
+   IKF =  0.01
+   NE =  1.5
+   NF =  0.9
+   NR =  1
+   VAR =  50
+   IKR =  0.01
+   ISC =  0
+   NC =  2
+   IRB =  0.01
+   RBM =  0
+   XTF =  0
+   VTF =  50
+   ITF =  0
+   PTF =  0
+   XCJC =  1
+   VJS =  0.75
+   MJS =  0
+   XTB =  0
+   EG =  1.11
+   XTI =  3
+   KF =  0
+   AF =  1
+   FC =  0.5
+   TNOM =  27
)

.MODEL T142 NPN (
+   IS =  1.07e-07
+   BF =  41.6
+   BR =  1
+   RB =  2
+   RE =  0
+   RC =  0
+   CJS =  1e-10
+   CJE =  0
+   CJC =  0
+   VJE =  0.75
+   VJC =  0.75
+   TF =  0
+   TR =  0
+   MJE =  0.33
+   MJC =  0.33
+   VA =  50
+   ISE =  1e-08
+   IKF =  0.01
+   NE =  1.5
+   NF =  0.9
+   NR =  1
+   VAR =  50
+   IKR =  0.01
+   ISC =  0
+   NC =  2
+   IRB =  0.01
+   RBM =  0
+   XTF =  0
+   VTF =  50
+   ITF =  0
+   PTF =  0
+   XCJC =  1
+   VJS =  0.75
+   MJS =  0
+   XTB =  0
+   EG =  1.11
+   XTI =  3
+   KF =  0
+   AF =  1
+   FC =  0.5
+   TNOM =  27
)

.MODEL T143 NPN (
+   IS =  1.11e-07
+   BF =  42.6
+   BR =  1
+   RB =  2
+   RE =  0
+   RC =  0
+   CJS =  1e-10
+   CJE =  0
+   CJC =  0
+   VJE =  0.75
+   VJC =  0.75
+   TF =  0
+   TR =  0
+   MJE =  0.33
+   MJC =  0.33
+   VA =  50
+   ISE =  1e-08
+   IKF =  0.01
+   NE =  1.5
+   NF =  0.9
+   NR =  1
+   VAR =  50
+   IKR =  0.01
+   ISC =  0
+   NC =  2
+   IRB =  0.01
+   RBM =  0
+   XTF =  0
+   VTF =  50
+   ITF =  0
+   PTF =  0
+   XCJC =  1
+   VJS =  0.75
+   MJS =  0
+   XTB =  0
+   EG =  1.11
+   XTI =  3
+   KF =  0
+   AF =  1
+   FC =  0.5
+   TNOM =  27
)

.MODEL T144 NPN (
+   IS =  1.15e-07
+   BF =  43.6
+   BR =  1
+   RB =  2
+   RE =  0
+   RC =  0
+   CJS =  1e-10
+   CJE =  0
+   CJC =  0
+   VJE =  0.75
+   VJC =  0.75
+   TF =  0
+   TR =  0
+   MJE =  0.33
+   MJC =  0.33
+   VA =  50
+   ISE =  1e-08
+   IKF =  0.01
+   NE =  1.5
+   NF =  0.9
+   NR =  1
+   VAR =  50
+   IKR =  0.01
+   ISC =  0
+   NC =  2
+   IRB =  0.01
+   RBM =  0
+   XTF =  0
+   VTF =  50
+   ITF =  0
+   PTF =  0
+   XCJC =  1
+   VJS =  0.75
+   MJS =  0
+   XTB =  0
+   EG =  1.11
+   XTI =  3
+   KF =  0
+   AF =  1
+   FC =  0.5
+   TNOM =  27
)

.MODEL T145 NPN (
+   IS =  1.19e-07
+   BF =  44.6
+   BR =  1
+   RB =  2
+   RE =  0
+   RC =  0
+   CJS =  1e-10
+   CJE =  0
+   CJC =  0
+   VJE =  0.75
+   VJC =  0.75
+   TF =  0
+   TR =  0
+   MJE =  0.33
+   MJC =  0.33
+   VA =  50
+   ISE =  1e-08
+   IKF =  0.01
+   NE =  1.5
+   NF =  0.9
+   NR =  1
+   VAR =  50
+   IKR =  0.01
+   ISC =  0
+   NC =  2
+   IRB =  0.01
+   RBM =  0
+   XTF =  0
+   VTF =  50
+   ITF =  0
+   PTF =  0
+   XCJC =  1
+   VJS =  0.75
+   MJS =  0
+   XTB =  0
+   EG =  1.11
+   XTI =  3
+   KF =  0
+   AF =  1
+   FC =  0.5
+   TNOM =  27
)

.MODEL T146 NPN (
+   IS =  1.23e-07
+   BF =  45.6
+   BR =  1
+   RB =  2
+   RE =  0
+   RC =  0
+   CJS =  1e-10
+   CJE =  0
+   CJC =  0
+   VJE =  0.75
+   VJC =  0.75
+   TF =  0
+   TR =  0
+   MJE =  0.33
+   MJC =  0.33
+   VA =  50
+   ISE =  1e-08
+   IKF =  0.01
+   NE =  1.5
+   NF =  0.9
+   NR =  1
+   VAR =  50
+   IKR =  0.01
+   ISC =  0
+   NC =  2
+   IRB =  0.01
+   RBM =  0
+   XTF =  0
+   VTF =  50
+   ITF =  0
+   PTF =  0
+   XCJC =  1
+   VJS =  0.75
+   MJS =  0
+   XTB =  0
+   EG =  1.11
+   XTI =  3
+   KF =  0
+   AF =  1
+   FC =  0.5
+   TNOM =  27
)

.MODEL T147 NPN (
+   IS =  1.27e-07
+   BF =  46.6
+   BR =  1
+   RB =  2
+   RE =  0
+   RC =  0
+   CJS =  1e-10
+   CJE =  0
+   CJC =  0
+   VJE =  0.75
+   VJC =  0.75
+   TF =  0
+   TR =  0
+   MJE =  0.33
+   MJC =  0.33
+   VA =  50
+   ISE =  1e-08
+   IKF =  0.01
+   NE =  1.5
+   NF =  0.9
+   NR =  1
+   VAR =  50
+   IKR =  0.01
+   ISC =  0
+   NC =  2
+   IRB =  0.01
+   RBM =  0
+   XTF =  0
+   VTF =  50
+   ITF =  0
+   PTF =  0
+   XCJC =  1
+   VJS =  0.75
+   MJS =  0
+   XTB =  0
+   EG =  1.11
+   XTI =  3
+   KF =  0
+   AF =  1
+   FC =  0.5
+   TNOM =  27
)

.MODEL T148 NPN (
+   IS =  1.31e-07
+   BF =  47.6
+   BR =  1
+   RB =  2
+   RE =  0
+   RC =  0
+   CJS =  1e-10
+   CJE =  0
+   CJC =  0
+   VJE =  0.75
+   VJC =  0.75
+   TF =  0
+   TR =  0
+   MJE =  0.33
+   MJC =  0.33
+   VA =  50
+   ISE =  1e-08
+   IKF =  0.01
+   NE =  1.5
+   NF =  0.9
+   NR =  1
+   VAR =  50
+   IKR =  0.01
+   ISC =  0
+   NC =  2
+   IRB =  0.01
+   RBM =  0
+   XTF =  0
+   VTF =  50
+   ITF =  0
+   PTF =  0
+   XCJC =  1
+   VJS =  0.75
+   MJS =  0
+   XTB =  0
+   EG =  1.11
+   XTI =  3
+   KF =  0
+   AF =  1
+   FC =  0.5
+   TNOM =  27
)

.MODEL T149 NPN (
+   IS =  1.35e-07
+   BF =  48.6
+   BR =  1
+   RB =  2
+   RE =  0
+   RC =  0
+   CJS =  1e-10
+   CJE =  0
+   CJC =  0
+   VJE =  0.75
+   VJC =  0.75
+   TF =  0
+   TR =  0
+   MJE =  0.33
+   MJC =  0.33
+   VA =  50
+   ISE =  1e-08
+   IKF =  0.01
+   NE =  1.5
+   NF =  0.9
+   NR =  1
+   VAR =  50
+   IKR =  0.01
+   ISC =  0
+   NC =  2
+   IRB =  0.01
+   RBM =  0
+   XTF =  0
+   VTF =  50
+   ITF =  0
+   PTF =  0
+   XCJC =  1
+   VJS =  0.75
+   MJS =  0
+   XTB =  0
+   EG =  1.11
+   XTI =  3
+   KF =  0
+   AF =  1
+   FC =  0.5
+   TNOM =  27
)

.MODEL T150 NPN (
+   IS =  1.39e-07
+   BF =  49.6
+   BR =  1
+   RB =  2
+   RE =  0
+   RC =  0
+   CJS =  1e-10
+   CJE =  0
+   CJC =  0
+   VJE =  0.75
+   VJC =  0.75
+   TF =  0
+   TR =  0
+   MJE =  0.33
+   MJC =  0.33
+   VA =  50
+   ISE =  1e-08
+   IKF =  0.01
+   NE =  1.5
+   NF =  0.9
+   NR =  1
+   VAR =  50
+   IKR =  0.01
+   ISC =  0
+   NC =  2
+   IRB =  0.01
+   RBM =  0
+   XTF =  0
+   VTF =  50
+   ITF =  0
+   PTF =  0
+   XCJC =  1
+   VJS =  0.75
+   MJS =  0
+   XTB =  0
+   EG =  1.11
+   XTI =  3
+   KF =  0
+   AF =  1
+   FC =  0.5
+   TNOM =  27
)

.MODEL T151 NPN (
+   IS =  1.43e-07
+   BF =  50.6
+   BR =  1
+   RB =  2
+   RE =  0
+   RC =  0
+   CJS =  1e-10
+   CJE =  0
+   CJC =  0
+   VJE =  0.75
+   VJC =  0.75
+   TF =  0
+   TR =  0