.SUBCKT 2n4091 10 20 30
J1 10 20 30 NJF
.MODEL NJF NJF
+             VTO = -8.0337E+000
+            BETA = 1.56450E-003
+          LAMBDA = 1.00000E-002
+              RD = 8.25115E-001
+              RS = 8.25115E-001
+              IS = 6.54620E-016
+            CGS  = 8.75000E-012
+            CGD  = 1.37500E-011
+              PB = 7.72344E-001
+              FC = 5.00000E-001
.ENDS
.SUBCKT 2n4092 10 20 30
J1 10 20 30 NJF
.MODEL NJF NJF
+             VTO = -2.2088E+000
+            BETA = 4.22567E-003
+          LAMBDA = 6.40354E-002
+              RD = 1.14866E+000
+              RS = 1.14866E+000
+              IS = 4.90805E-016
+            CGS  = 8.25000E-012
+            CGD  = 8.25000E-012
+              PB = 7.55484E-001
+              FC = 5.00000E-001
.ENDS
.SUBCKT 2n4093 10 20 30
J1 10 20 30 NJF
.MODEL NJF NJF
+             VTO = -1.3550E+000
+            BETA = 6.94457E-003
+          LAMBDA = 3.97876E-002
+              RD = 3.51442E+000
+              RS = 3.51442E+000
+              IS = 6.91657E-016
+            CGS  = 8.00000E-012
+            CGD  = 8.30000E-012
+              PB = 7.27722E-001
+              FC = 5.00000E-001
.ENDS
.SUBCKT 2n4391 10 20 30
J1 10 20 30 NJF
.MODEL NJF NJF
+             VTO = -8.0337E+000
+            BETA = 1.56450E-003
+          LAMBDA = 1.00000E-002
+              RD = 8.25115E-001
+              RS = 8.25115E-001
+              IS = 6.54620E-016
+            CGS  = 8.75000E-012
+            CGD  = 1.37500E-011
+              PB = 7.72344E-001
+              FC = 5.00000E-001
.ENDS
.SUBCKT 2n4392 10 20 30
J1 10 20 30 NJF
.MODEL NJF NJF
+             VTO = -2.2088E+000
+            BETA = 4.22567E-003
+          LAMBDA = 6.40354E-002
+              RD = 1.14866E+000
+              RS = 1.14866E+000
+              IS = 4.90805E-016
+            CGS  = 8.25000E-012
+            CGD  = 8.25000E-012
+              PB = 7.55484E-001
+              FC = 5.00000E-001
.ENDS
.SUBCKT 2n4393 10 20 30
J1 10 20 30 NJF
.MODEL NJF NJF
+             VTO = -1.3550E+000
+            BETA = 6.94457E-003
+          LAMBDA = 3.97876E-002
+              RD = 3.51442E+000
+              RS = 3.51442E+000
+              IS = 6.91657E-016
+            CGS  = 8.00000E-012
+            CGD  = 8.30000E-012
+              PB = 7.27722E-001
+              FC = 5.00000E-001
.ENDS
.SUBCKT 2n4416 10 20 30
J1 10 20 30 NJF
.MODEL NJF NJF
+             VTO = -3.5534E+000
+            BETA = 7.92667E-004
+          LAMBDA = 1.84696E-002
+              RD = 7.67130E+000
+              RS = 7.67130E+000
+              IS = 3.33412E-016
+            CGS  = 2.92000E-012
+            CGD  = 2.26140E-012
+              PB = 1.09077E+000
+              FC = 5.00000E-001
.ENDS
.SUBCKT 2n4416a 10 20 30
J1 10 20 30 NJF
.MODEL NJF NJF
+             VTO = -3.5534E+000
+            BETA = 7.92667E-004
+          LAMBDA = 1.84696E-002
+              RD = 7.67130E+000
+              RS = 7.67130E+000
+              IS = 3.33412E-016
+            CGS  = 2.92000E-012
+            CGD  = 2.26140E-012
+              PB = 1.09077E+000
+              FC = 5.00000E-001
.ENDS
.SUBCKT 2n4856 10 20 30
J1 10 20 30 NJF
.MODEL NJF NJF
+             VTO = -5.3298E+000
+            BETA = 2.86527E-003
+          LAMBDA = 6.19323E-002
+              RD = 1.62278E+000
+              RS = 1.62278E+000
+              IS = 1.18582E-015
+            CGS  = 1.05000E-011
+            CGD  = 1.30000E-011
+              PB = 7.98217E-001
+              FC = 5.00000E-001
.ENDS
.SUBCKT 2n4857 10 20 30
J1 10 20 30 NJF
.MODEL NJF NJF
+             VTO = -3.1621E+000
+            BETA = 5.01519E-003
+          LAMBDA = 2.40112E-002
+              RD = 1.48485E+000
+              RS = 1.48485E+000
+              IS = 9.11151E-016
+            CGS  = 1.05000E-011
+            CGD  = 1.40000E-011
+              PB = 5.68050E-001
+              FC = 5.00000E-001
.ENDS
.SUBCKT 2n4858 10 20 30
J1 10 20 30 NJF
.MODEL NJF NJF
+             VTO = -2.4397E+000
+            BETA = 6.09357E-003
+          LAMBDA = 5.26244E-002
+              RD = 1.26608E+000
+              RS = 1.26608E+000
+              IS = 9.89866E-016
+            CGS  = 1.05000E-011
+            CGD  = 1.10000E-011
+              PB = 6.06848E-001
+              FC = 5.00000E-001
.ENDS
.SUBCKT 2n4859 10 20 30
J1 10 20 30 NJF
.MODEL NJF NJF
+             VTO = -5.3298E+000
+            BETA = 2.86527E-003
+          LAMBDA = 6.19323E-002
+              RD = 1.62278E+000
+              RS = 1.62278E+000
+              IS = 1.18582E-015
+            CGS  = 1.05000E-011
+            CGD  = 1.30000E-011
+              PB = 7.98217E-001
+              FC = 5.00000E-001
.ENDS
.SUBCKT 2n4860 10 20 30
J1 10 20 30 NJF
.MODEL NJF NJF
+             VTO = -3.1621E+000
+            BETA = 5.01519E-003
+          LAMBDA = 2.40112E-002
+              RD = 1.48485E+000
+              RS = 1.48485E+000
+              IS = 9.11151E-016
+            CGS  = 1.05000E-011
+            CGD  = 1.40000E-011
+              PB = 5.68050E-001
+              FC = 5.00000E-001
.ENDS
.SUBCKT 2n4861 10 20 30
J1 10 20 30 NJF
.MODEL NJF NJF
+             VTO = -2.4397E+000
+            BETA = 6.09357E-003
+          LAMBDA = 5.26244E-002
+              RD = 1.26608E+000
+              RS = 1.26608E+000
+              IS = 9.89866E-016
+            CGS  = 1.05000E-011
+            CGD  = 1.10000E-011
+              PB = 6.06848E-001
+              FC = 5.00000E-001
.ENDS
.SUBCKT 2n5484 10 20 30
J1 10 20 30 NJF
.MODEL NJF NJF
+             VTO = -1.2796E+000
+            BETA = 1.71347E-003
+          LAMBDA = 1.93292E-002
+              RD = 4.41873E+000
+              RS = 4.41873E+000
+              IS = 1.25479E-016
+            CGSO = 2.25000E-012
+            CGDO = 2.34000E-012
+              PB = 1.14141E+000
+              FC = 5.00000E-001
.ENDS
.SUBCKT 2n5485 10 20 30
J1 10 20 30 NJF
.MODEL NJF NJF
+             VTO = -2.2776E+000
+            BETA = 1.16245E-003
+          LAMBDA = 1.74427E-002
+              RD = 5.28684E+000
+              RS = 5.28684E+000
+              IS = 1.71027E-016
+            CGSO = 2.68000E-012
+            CGDO = 2.28000E-012
+              PB = 1.02676E+000
+              FC = 5.00000E-001
.ENDS
.SUBCKT 2n5486 10 20 30
J1 10 20 30 NJF
.MODEL NJF NJF
+             VTO = -3.8470E+000
+            BETA = 8.32666E-004
+          LAMBDA = 1.91513E-002
+              RD = 5.71667E+000
+              RS = 5.71667E+000
+              IS = 2.03601E-016
+            CGSO = 2.50000E-012
+            CGDO = 2.38000E-012
+              PB = 1.48032E+000
+              FC = 5.00000E-001
.ENDS
.SUBCKT bc264a 10 20 30
J1 10 20 30 NJF
.MODEL NJF NJF
+             VTO = -1.0686E+000
+            BETA = 1.73071E-003
+          LAMBDA = 2.29157E-002
+              RD = 9.05115E+000
+              RS = 9.05115E+000
+              IS = 1.70538E-016
+            CGS  = 2.20000E-012
+            CGD  = 2.20000E-012
+              PB = 9.78591E-001
+              FC = 5.00000E-001
.ENDS
.SUBCKT bc264b 10 20 30
J1 10 20 30 NJF
.MODEL NJF NJF
+             VTO = -1.7564E+000
+            BETA = 1.18820E-003
+          LAMBDA = 1.87821E-002
+              RD = 9.84550E+000
+              RS = 9.84550E+000
+              IS = 3.20636E-016
+            CGS  = 2.15000E-012
+            CGD  = 2.20000E-012
+              PB = 7.73534E-001
+              FC = 5.00000E-001
.ENDS
.SUBCKT bc264c 10 20 30
J1 10 20 30 NJF
.MODEL NJF NJF
+             VTO = -2.0850E+000
+            BETA = 1.24635E-003
+          LAMBDA = 2.46045E-002
+              RD = 1.68159E+001
+              RS = 1.68159E+001
+              IS = 2.16894E-016
+            CGS  = 2.25000E-012
+            CGD  = 2.25000E-012
+              PB = 9.32203E-001
+              FC = 5.00000E-001
.ENDS
.SUBCKT bc264d 10 20 30
J1 10 20 30 NJF
.MODEL NJF NJF
+             VTO = -2.3085E+000
+            BETA = 1.09045E-003
+          LAMBDA = 2.31754E-002
+              RD = 7.77648E+000
+              RS = 7.77648E+000
+              IS = 2.59121E-016
+            CGS  = 2.00000E-012
+            CGD  = 2.20000E-012
+              PB = 9.91494E-001
+              FC = 5.00000E-001
.ENDS
.SUBCKT bf245a 10 20 30
J1 10 20 30 NJF
.MODEL NJF NJF
+             VTO = -1.7372E+000
+            BETA = 1.16621E-003
+          LAMBDA = 1.77211E-002
+              RD = 9.01678E+000
+              RS = 9.01678E+000
+              IS = 2.91797E-016
+            CGS  = 2.20000E-012
+            CGD  = 2.20000E-012
+              PB = 7.80988E-001
+              FC = 5.00000E-001
.ENDS
.SUBCKT bf245b 10 20 30
J1 10 20 30 NJF
.MODEL NJF NJF
+             VTO = -2.3085E+000
+            BETA = 1.09045E-003
+          LAMBDA = 2.31754E-002
+              RD = 7.77648E+000
+              RS = 7.77648E+000
+              IS = 2.59121E-016
+            CGS  = 2.00000E-012
+            CGD  = 2.20000E-012
+              PB = 9.91494E-001
+              FC = 5.00000E-001
.ENDS
.SUBCKT bf245c 10 20 30
J1 10 20 30 NJF
.MODEL NJF NJF
+             VTO = -5.0014E+000
+            BETA = 5.43157E-004
+          LAMBDA = 2.71505E-002
+              RD = 1.20869E+001
+              RS = 1.20869E+001
+              IS = 3.64346E-016
+            CGS  = 2.00000E-012
+            CGD  = 2.00000E-012
+              PB = 1.24659E+000
+              FC = 5.00000E-001
.ENDS
.SUBCKT bf246a 10 20 30
J1 10 20 30 NJF
.MODEL NJF NJF
+             VTO = -5.3298E+000
+            BETA = 2.86527E-003
+          LAMBDA = 6.19323E-002
+              RD = 1.62278E+000
+              RS = 1.62278E+000
+              IS = 1.18582E-015
+            CGS  = 1.05000E-011
+            CGD  = 1.30000E-011
+              PB = 7.98217E-001
+              FC = 5.00000E-001
.ENDS
.SUBCKT bf247a 10 20 30
J1 10 20 30 NJF
.MODEL NJF NJF
+             VTO = -5.3298E+000
+            BETA = 2.86527E-003
+          LAMBDA = 6.19323E-002
+              RD = 1.62278E+000
+              RS = 1.62278E+000
+              IS = 1.18582E-015
+            CGS  = 1.05000E-011
+            CGD  = 1.30000E-011
+              PB = 7.98217E-001
+              FC = 5.00000E-001
.ENDS
.SUBCKT bf256a 10 20 30
J1 10 20 30 NJF
.MODEL NJF NJF
+             VTO = -2.1333E+000
+            BETA = 1.06491E-003
+          LAMBDA = 1.68673E-002
+              RD = 1.41231E+001
+              RS = 1.41231E+001
+              IS = 3.50865E-016
+            CGS  = 2.10000E-012
+            CGD  = 2.30000E-012
+              PB = 7.73895E-001
+              FC = 5.00000E-001
.ENDS
.SUBCKT bf256b 10 20 30
J1 10 20 30 NJF
.MODEL NJF NJF
+             VTO = -2.3085E+000
+            BETA = 1.09045E-003
+          LAMBDA = 2.31754E-002
+              RD = 7.77648E+000
+              RS = 7.77648E+000
+              IS = 2.59121E-016
+            CGS  = 2.00000E-012
+            CGD  = 2.20000E-012
+              PB = 9.91494E-001
+              FC = 5.00000E-001
.ENDS
.SUBCKT bf410a 10 20 30
J1 10 20 30 NJF
.MODEL NJF NJF
+             VTO = -8.8094E-001
+            BETA = 2.01845E-003
+          LAMBDA = 1.50475E-002
+              RD = 3.57223E+000
+              RS = 3.57223E+000
+              IS = 1.05515E-013
+            CGS  = 2.80000E-012
+            CGD  = 4.27000E-012
+              PB = 6.18391E-001
+              FC = 5.00000E-001
.ENDS
.SUBCKT bf410b 10 20 30
J1 10 20 30 NJF
.MODEL NJF NJF
+             VTO = -1.9058E+000
+            BETA = 1.54719E-003
+          LAMBDA = 1.72995E-002
+              RD = 3.06677E+000
+              RS = 3.06677E+000
+              IS = 7.02360E-014
+            CGS  = 4.18000E-012
+            CGD  = 2.37000E-012
+              PB = 7.16850E-001
+              FC = 5.00000E-001
.ENDS
.SUBCKT bf410c 10 20 30
J1 10 20 30 NJF
.MODEL NJF NJF
+             VTO = -2.3973E+000
+            BETA = 1.31099E-003
+          LAMBDA = 1.70958E-002
+              RD = 3.03493E+000
+              RS = 3.03493E+000
+              IS = 5.66111E-014
+            CGS  = 3.42000E-012
+            CGD  = 2.68000E-012
+              PB = 8.25674E-001
+              FC = 5.00000E-001
.ENDS
.SUBCKT bf410d 10 20 30
J1 10 20 30 NJF
.MODEL NJF NJF
+             VTO = -3.1715E+000
+            BETA = 1.22441E-003
+          LAMBDA = 1.98434E-002
+              RD = 2.61448E+000
+              RS = 2.61448E+000
+              IS = 3.88189E-014
+            CGS  = 5.40000E-012
+            CGD  = 4.08000E-012
+              PB = 8.59053E-001
+              FC = 5.00000E-001
.ENDS
.SUBCKT bf510 10 20 30
J1 10 20 30 NJF
.MODEL NJF NJF
+             VTO = -8.8094E-001
+            BETA = 2.01845E-003
+          LAMBDA = 1.50475E-002
+              RD = 3.57223E+000
+              RS = 3.57223E+000
+              IS = 1.05515E-013
+            CGS  = 2.80000E-012
+            CGD  = 2.27000E-012
+              PB = 6.18391E-001
+              FC = 5.00000E-001
.ENDS
.SUBCKT bf511 10 20 30
J1 10 20 30 NJF
.MODEL NJF NJF
+             VTO = -1.9058E+000
+            BETA = 1.54719E-003
+          LAMBDA = 1.72995E-002
+              RD = 3.06677E+000
+              RS = 3.06677E+000
+              IS = 7.02360E-014
+            CGS  = 4.18000E-012
+            CGD  = 2.37000E-012
+              PB = 7.16850E-001
+              FC = 5.00000E-001
.ENDS
.SUBCKT bf512 10 20 30
J1 10 20 30 NJF
.MODEL NJF NJF
+             VTO = -2.3973E+000
+            BETA = 1.31099E-003
+          LAMBDA = 1.70958E-002
+              RD = 3.03493E+000
+              RS = 3.03493E+000
+              IS = 5.66111E-014
+            CGS  = 3.42000E-012
+            CGD  = 2.68000E-012
+              PB = 8.25674E-001
+              FC = 5.00000E-001
.ENDS
.SUBCKT bf513 10 20 30
J1 10 20 30 NJF
.MODEL NJF NJF
+             VTO = -3.1715E+000
+            BETA = 1.22441E-003
+          LAMBDA = 1.98434E-002
+              RD = 2.61448E+000
+              RS = 2.61448E+000
+              IS = 3.88189E-014
+            CGS  = 5.40000E-012
+            CGD  = 4.08000E-012
+              PB = 8.59053E-001
+              FC = 5.00000E-001
.ENDS
.SUBCKT bf545a 10 20 30
J1 10 20 30 NJF
.MODEL NJF NJF
+             VTO = -1.7372E+000
+            BETA = 1.16621E-003
+          LAMBDA = 1.77211E-002
+              RD = 9.01678E+000
+              RS = 9.01678E+000
+              IS = 2.91797E-016
+            CGS  = 2.20000E-012
+            CGD  = 2.20000E-012
+              PB = 7.80988E-001
+              FC = 5.00000E-001
.ENDS
.SUBCKT bf545b 10 20 30
J1 10 20 30 NJF
.MODEL NJF NJF
+             VTO = -2.3085E+000
+            BETA = 1.09045E-003
+          LAMBDA = 2.31754E-002
+              RD = 7.77648E+000
+              RS = 7.77648E+000
+              IS = 2.59121E-016
+            CGS  = 2.00000E-012
+            CGD  = 2.20000E-012
+              PB = 9.91494E-001
+              FC = 5.00000E-001
.ENDS
.SUBCKT bf545c 10 20 30
J1 10 20 30 NJF
.MODEL NJF NJF
+             VTO = -5.0014E+000
+            BETA = 5.43157E-004
+          LAMBDA = 2.71505E-002
+              RD = 1.20869E+001
+              RS = 1.20869E+001
+              IS = 3.64346E-016
+            CGS  = 2.00000E-012
+            CGD  = 2.00000E-012
+              PB = 1.24659E+000
+              FC = 5.00000E-001
.ENDS
.SUBCKT bf556a 10 20 30
J1 10 20 30 NJF
.MODEL NJF NJF
+             VTO = -2.1333E+000
+            BETA = 1.06491E-003
+          LAMBDA = 1.68673E-002
+              RD = 1.41231E+001
+              RS = 1.41231E+001
+              IS = 3.50865E-016
+            CGS  = 2.10000E-012
+            CGD  = 2.30000E-012
+              PB = 7.73895E-001
+              FC = 5.00000E-001
.ENDS
.SUBCKT bf556b 10 20 30
J1 10 20 30 NJF
.MODEL NJF NJF
+             VTO = -2.3085E+000
+            BETA = 1.09045E-003
+          LAMBDA = 2.31754E-002
+              RD = 7.77648E+000
+              RS = 7.77648E+000
+              IS = 2.59121E-016
+            CGS  = 2.00000E-012
+            CGD  = 2.20000E-012
+              PB = 9.91494E-001
+              FC = 5.00000E-001
.ENDS
.SUBCKT bf851a 10 20 30
J1 10 20 30 NJF
.MODEL NJF NJF
+                 IS=4.102E-16 CGS=6.299E-12 CGD=6.299E-12 PB=0.6917 FC=0.5)
.ENDS
.SUBCKT bf851b 10 20 30
J1 10 20 30 NJF
.MODEL NJF NJF
+                 IS=3.769E-16 CGS=6.025E-12 CGD=6.025E-12 PB=0.7072 FC=0.5)
.ENDS
.SUBCKT bf851c 10 20 30
J1 10 20 30 NJF
.MODEL NJF NJF
+                 IS=4.157E-16 CGS=6.581E-12 CGD=6.581E-12 PB=0.7395 FC=0.5)
.ENDS
.SUBCKT bf861a 10 20 30
J1 10 20 30 NJF
.MODEL NJF NJF
+                 IS=4.102E-16 CGS=6.299E-12 CGD=6.299E-12 PB=0.6917 FC=0.5)
.ENDS
.SUBCKT bf861b 10 20 30
J1 10 20 30 NJF
.MODEL NJF NJF
+                 IS=3.769E-16 CGS=6.025E-12 CGD=6.025E-12 PB=0.7072 FC=0.5)
.ENDS
.SUBCKT bf861c 10 20 30
J1 10 20 30 NJF
.MODEL NJF NJF
+                 IS=4.157E-16 CGS=6.581E-12 CGD=6.581E-12 PB=0.7395 FC=0.5)
.ENDS
.SUBCKT bfr30 10 20 30
J1 10 20 30 NJF
.MODEL NJF NJF
+             VTO = -2.0850E+000
+            BETA = 1.24635E-003
+          LAMBDA = 2.46045E-002
+              RD = 1.68159E+001
+              RS = 1.68159E+001
+              IS = 2.16894E-016
+            CGS  = 2.25000E-012
+            CGD  = 2.25000E-012
+              PB = 9.32203E-001
+              FC = 5.00000E-001
.ENDS
.SUBCKT bfr31 10 20 30
J1 10 20 30 NJF
.MODEL NJF NJF
+             VTO = -1.0686E+000
+            BETA = 1.73071E-003
+          LAMBDA = 2.29157E-002
+              RD = 9.05115E+000
+              RS = 9.05115E+000
+              IS = 1.70538E-016
+            CGS  = 2.20000E-012
+            CGD  = 2.20000E-012
+              PB = 9.78591E-001
+              FC = 5.00000E-001
.ENDS
.SUBCKT bft46 10 20 30
J1 10 20 30 NJF
.MODEL NJF NJF
+             VTO = -6.4188E-001
+            BETA = 1.86172E-003
+          LAMBDA = 2.16604E-002
+              RD = 9.23044E+000
+              RS = 9.23044E+000
+              IS = 1.68833E-016
+            CGS  = 2.20000E-012
+            CGD  = 2.20000E-012
+              PB = 8.27713E-001
+              FC = 5.00000E-001
.ENDS
.SUBCKT bfu308 10 20 30
J1 10 20 30 NJF
.MODEL NJF NJF
+             VTO = -3.2130E+000
+            BETA = 3.33257E-003
+          LAMBDA = 2.34410E-002
+              RD = 1.50212E+000
+              RS = 1.50212E+000
+              IS = 3.82746E-016
+            CGS  = 7.60000E-012
+            CGD  = 6.70000E-012
+              PB = 7.76379E-001
+              FC = 5.00000E-001
.ENDS
.SUBCKT bfu309 10 20 30
J1 10 20 30 NJF
.MODEL NJF NJF
+             VTO = -2.3973E+000
+            BETA = 3.81468E-003
+          LAMBDA = 3.80761E-002
+              RD = 2.33008E+000
+              RS = 2.33008E+000
+              IS = 3.02702E-016
+            CGS  = 7.00000E-012
+            CGD  = 6.20000E-012
+              PB = 6.83767E-001
+              FC = 5.00000E-001
.ENDS
.SUBCKT bfu310 10 20 30
J1 10 20 30 NJF
.MODEL NJF NJF
+             VTO = -3.8366E+000
+            BETA = 2.88371E-003
+          LAMBDA = 2.00998E-002
+              RD = 1.53610E+000
+              RS = 1.53610E+000
+              IS = 4.18900E-016
+            CGS  = 7.90000E-012
+            CGD  = 6.70000E-012
+              PB = 7.58274E-001
+              FC = 5.00000E-001
.ENDS
.SUBCKT bfw10 10 20 30
J1 10 20 30 NJF
.MODEL NJF NJF
+             VTO = -2.3085E+000
+            BETA = 1.09045E-003
+          LAMBDA = 2.31754E-002
+              RD = 7.77648E+000
+              RS = 7.77648E+000
+              IS = 2.59121E-016
+            CGS  = 2.00000E-012
+            CGD  = 2.20000E-012
+              PB = 9.91494E-001
+              FC = 5.00000E-001
.ENDS
.SUBCKT bfw11 10 20 30
J1 10 20 30 NJF
.MODEL NJF NJF
+             VTO = -2.0850E+000
+            BETA = 1.24635E-003
+          LAMBDA = 2.46045E-002
+              RD = 1.68159E+001
+              RS = 1.68159E+001
+              IS = 2.16894E-016
+            CGS  = 2.25000E-012
+            CGD  = 2.25000E-012
+              PB = 9.32203E-001
+              FC = 5.00000E-001
.ENDS
.SUBCKT bfw12 10 20 30
J1 10 20 30 NJF
.MODEL NJF NJF
+             VTO = -1.0686E+000
+            BETA = 1.73071E-003
+          LAMBDA = 2.29157E-002
+              RD = 9.05115E+000
+              RS = 9.05115E+000
+              IS = 1.70538E-016
+            CGS  = 2.20000E-012
+            CGD  = 2.20000E-012
+              PB = 9.78591E-001
+              FC = 5.00000E-001
.ENDS
.SUBCKT bfw13 10 20 30
J1 10 20 30 NJF
.MODEL NJF NJF
+             VTO = -6.4188E-001
+            BETA = 1.86172E-003
+          LAMBDA = 2.16604E-002
+              RD = 9.23044E+000
+              RS = 9.23044E+000
+              IS = 1.68833E-016
+            CGS  = 2.20000E-012
+            CGD  = 2.20000E-012
+              PB = 8.27713E-001
+              FC = 5.00000E-001
.ENDS
.SUBCKT bfw61 10 20 30
J1 10 20 30 NJF
.MODEL NJF NJF
+             VTO = -2.3085E+000
+            BETA = 1.09045E-003
+          LAMBDA = 2.31754E-002
+              RD = 7.77648E+000
+              RS = 7.77648E+000
+              IS = 2.59121E-016
+            CGS  = 2.00000E-012
+            CGD  = 2.20000E-012
+              PB = 9.91494E-001
+              FC = 5.00000E-001
.ENDS
.SUBCKT bsj108 10 20 30
J1 10 20 30 NJF
.MODEL NJF NJF
+             VTO = -5.4528E+000
+            BETA = 1.11439E-002
+          LAMBDA = 1.00000E-001
+              RD = 3.11414E+000
+              RS = 3.11414E+000
+              IS = 6.90136E-015
+            CGS  = 2.75000E-011
+            CGD  = 4.30000E-011
+              PB = 5.90984E-001
+              FC = 5.00000E-001
.ENDS
.SUBCKT bsj109 10 20 30
J1 10 20 30 NJF
.MODEL NJF NJF
+             VTO = -5.5556E+000
+            BETA = 7.61416E-003
+          LAMBDA = 1.41466E-001
+              RD = 7.11991E-001
+              RS = 7.11991E-001
+              IS = 1.77087E-015
+            CGS  = 2.70000E-011
+            CGD  = 4.60000E-011
+              PB = 5.77536E-001
+              FC = 5.00000E-001
.ENDS
.SUBCKT bsj110 10 20 30
J1 10 20 30 NJF
.MODEL NJF NJF
+             VTO = -2.7780E+000
+            BETA = 1.20784E-002
+          LAMBDA = 1.74601E-001
+              RD = 1.03157E+000
+              RS = 1.03157E+000
+              IS = 4.42809E-015
+            CGS  = 2.80000E-011
+            CGD  = 3.80000E-011
+              PB = 4.64070E-001
+              FC = 5.00000E-001
.ENDS
.SUBCKT bsr56 10 20 30
J1 10 20 30 NJF
.MODEL NJF NJF
+             VTO = -5.3298E+000
+            BETA = 2.86527E-003
+          LAMBDA = 6.19323E-002
+              RD = 1.62278E+000
+              RS = 1.62278E+000
+              IS = 1.18582E-015
+            CGS  = 1.05000E-011
+            CGD  = 1.30000E-011
+              PB = 7.98217E-001
+              FC = 5.00000E-001
.ENDS
.SUBCKT bsr57 10 20 30
J1 10 20 30 NJF
.MODEL NJF NJF
+             VTO = -3.1621E+000
+            BETA = 5.01519E-003
+          LAMBDA = 2.40112E-002
+              RD = 1.48485E+000
+              RS = 1.48485E+000
+              IS = 9.11151E-016
+            CGS  = 1.05000E-011
+            CGD  = 1.40000E-011
+              PB = 5.68050E-001
+              FC = 5.00000E-001
.ENDS
.SUBCKT bsr58 10 20 30
J1 10 20 30 NJF
.MODEL NJF NJF
+             VTO = -2.4397E+000
+            BETA = 6.09357E-003
+          LAMBDA = 5.26244E-002
+              RD = 1.26608E+000
+              RS = 1.26608E+000
+              IS = 9.89866E-016
+            CGS  = 1.05000E-011
+            CGD  = 1.10000E-011
+              PB = 6.06848E-001
+              FC = 5.00000E-001
.ENDS
.SUBCKT bsv78 10 20 30
J1 10 20 30 NJF
.MODEL NJF NJF
+             VTO = -5.3298E+000
+            BETA = 2.86527E-003
+          LAMBDA = 6.19323E-002
+              RD = 1.62278E+000
+              RS = 1.62278E+000
+              IS = 1.18582E-015
+            CGS  = 1.05000E-011
+            CGD  = 1.30000E-011
+              PB = 7.98217E-001
+              FC = 5.00000E-001
.ENDS
.SUBCKT bsv79 10 20 30
J1 10 20 30 NJF
.MODEL NJF NJF
+             VTO = -5.3638E+000
+            BETA = 3.25000E-003
+          LAMBDA = 2.00000E-002
+              RD = 2.42642E+000
+              RS = 2.42642E+000
+              IS = 2.17605E-015
+            CGS  = 1.10000E-011
+            CGD  = 1.30000E-011
+              PB = 7.01712E-001
+              FC = 5.00000E-001
.ENDS
.SUBCKT bsv80 10 20 30
J1 10 20 30 NJF
.MODEL NJF NJF
+             VTO = -5.3638E+000
+            BETA = 3.25000E-003
+          LAMBDA = 2.00000E-002
+              RD = 2.42642E+000
+              RS = 2.42642E+000
+              IS = 2.17605E-015
+            CGS  = 1.10000E-011
+            CGD  = 1.30000E-011
+              PB = 7.01712E-001
+              FC = 5.00000E-001
.ENDS
.SUBCKT j108 10 20 30
J1 10 20 30 NJF
.MODEL NJF NJF
+             VTO = -5.4528E+000
+            BETA = 1.11439E-002
+          LAMBDA = 1.00000E-001
+              RD = 3.11414E+000
+              RS = 3.11414E+000
+              IS = 6.90136E-015
+            CGS  = 2.75000E-011
+            CGD  = 4.30000E-011
+              PB = 5.90984E-001
+              FC = 5.00000E-001
.ENDS
.SUBCKT j109 10 20 30
J1 10 20 30 NJF
.MODEL NJF NJF
+             VTO = -5.5556E+000
+            BETA = 7.61416E-003
+          LAMBDA = 1.41466E-001
+              RD = 7.11991E-001
+              RS = 7.11991E-001
+              IS = 1.77087E-015
+            CGS  = 2.70000E-011
+            CGD  = 4.60000E-011
+              PB = 5.77536E-001
+              FC = 5.00000E-001
.ENDS
.SUBCKT j110 10 20 30
J1 10 20 30 NJF
.MODEL NJF NJF
+             VTO = -2.7780E+000
+            BETA = 1.20784E-002
+          LAMBDA = 1.74601E-001
+              RD = 1.03157E+000
+              RS = 1.03157E+000
+              IS = 4.42809E-015
+            CGS  = 2.80000E-011
+            CGD  = 3.80000E-011
+              PB = 4.64070E-001
+              FC = 5.00000E-001
.ENDS
.SUBCKT j111 10 20 30
J1 10 20 30 NJF
.MODEL NJF NJF
+             VTO = -5.3638E+000
+            BETA = 3.25000E-003
+          LAMBDA = 2.00000E-002
+              RD = 2.42642E+000
+              RS = 2.42642E+000
+              IS = 2.17605E-015
+            CGS  = 1.10000E-011
+            CGD  = 1.30000E-011
+              PB = 7.01712E-001
+              FC = 5.00000E-001
.ENDS
.SUBCKT j112 10 20 30
J1 10 20 30 NJF
.MODEL NJF NJF
+             VTO = -2.3303E+000
+            BETA = 5.97264E-003
+          LAMBDA = 2.31986E-002
+              RD = 2.29075E+000
+              RS = 2.29075E+000
+              IS = 8.87988E-016
+            CGS  = 1.05000E-011
+            CGD  = 1.20000E-011
+              PB = 6.09944E-001
+              FC = 5.00000E-001
.ENDS
.SUBCKT j113 10 20 30
J1 10 20 30 NJF
.MODEL NJF NJF
+             VTO = -1.2854E+000
+            BETA = 9.25964E-003
+          LAMBDA = 3.03839E-002
+              RD = 1.30170E+000
+              RS = 1.30170E+000
+              IS = 9.86870E-016
+            CGS  = 1.05000E-011
+            CGD  = 1.20000E-011
+              PB = 5.04493E-001
+              FC = 5.00000E-001
.ENDS
.SUBCKT j210 10 20 30
J1 10 20 30 NJF
.MODEL NJF NJF
+             VTO = -1.3625E+000
+            BETA = 2.58057E-003
+          LAMBDA = 4.02504E-002
+              RD = 1.60601E+001
+              RS = 1.60601E+001
+              IS = 2.75763E-016
+            CGS  = 2.90000E-012
+            CGD  = 2.80000E-012
+              PB = 9.10633E-001
+              FC = 5.00000E-001
.ENDS
.SUBCKT j211 10 20 30
J1 10 20 30 NJF
.MODEL NJF NJF
+             VTO = -3.5625E+000
+            BETA = 1.45049E-003
+          LAMBDA = 1.57373E-002
+              RD = 6.67086E+000
+              RS = 6.67086E+000
+              IS = 2.84380E-016
+            CGS  = 2.80000E-012
+            CGD  = 3.00000E-012
+              PB = 1.32813E+000
+              FC = 5.00000E-001
.ENDS
.SUBCKT j212 10 20 30
J1 10 20 30 NJF
.MODEL NJF NJF
+             VTO = -5.0963E+000
+            BETA = 1.05642E-003
+          LAMBDA = 2.11045E-002
+              RD = 9.17276E+000
+              RS = 9.17276E+000
+              IS = 3.28725E-016
+            CGS  = 2.80000E-012
+            CGD  = 3.00000E-012
+              PB = 1.37159E+000
+              FC = 5.00000E-001
.ENDS
.SUBCKT j308 10 20 30
J1 10 20 30 NJF
.MODEL NJF NJF
+             VTO = -3.2130E+000
+            BETA = 3.33257E-003
+          LAMBDA = 2.34410E-002
+              RD = 1.50212E+000
+              RS = 1.50212E+000
+              IS = 3.82746E-016
+            CGS  = 7.10000E-012
+            CGD  = 6.20000E-012
+              PB = 7.76379E-001
+              FC = 5.00000E-001
.ENDS
.SUBCKT j309 10 20 30
J1 10 20 30 NJF
.MODEL NJF NJF
+             VTO = -2.3973E+000
+            BETA = 3.81468E-003
+          LAMBDA = 3.80761E-002
+              RD = 2.33008E+000
+              RS = 2.33008E+000
+              IS = 3.02702E-016
+            CGS  = 6.50000E-012
+            CGD  = 5.70000E-012
+              PB = 6.83767E-001
+              FC = 5.00000E-001
.ENDS
.SUBCKT j310 10 20 30
J1 10 20 30 NJF
.MODEL NJF NJF
+             VTO = -3.8366E+000
+            BETA = 2.88371E-003
+          LAMBDA = 2.00998E-002
+              RD = 1.53610E+000
+              RS = 1.53610E+000
+              IS = 4.18900E-016
+            CGS  = 7.40000E-012
+            CGD  = 6.20000E-012
+              PB = 7.58274E-001
+              FC = 5.00000E-001
.ENDS
.SUBCKT pmb4416a 10 20 30
J1 10 20 30 NJF
.MODEL NJF NJF
+             VTO = -3.5534E+000
+            BETA = 7.92667E-004
+          LAMBDA = 1.84696E-002
+              RD = 7.67130E+000
+              RS = 7.67130E+000
+              IS = 3.33412E-016
+            CGS  = 2.92000E-012
+            CGD  = 2.26140E-012
+              PB = 1.09077E+000
+              FC = 5.00000E-001
.ENDS
.SUBCKT pmbf4391 10 20 30
J1 10 20 30 NJF
.MODEL NJF NJF
+             VTO = -8.0337E+000
+            BETA = 1.56450E-003
+          LAMBDA = 1.00000E-002
+              RD = 8.25115E-001
+              RS = 8.25115E-001
+              IS = 6.54620E-016